version 2
run DSCP-0-20220817-23:05:44-70404
attr configname DSCP
attr datetime 20220817-23:05:44
attr experiment DSCP
attr inifile omnetpp.ini
attr iterationvars ""
attr iterationvarsf ""
attr measurement ""
attr network Multihop
attr processid 70404
attr repetition 0
attr replication #0
attr resultdir results
attr runnumber 0
attr seedset 0
param *.hostA.numApps 2
param *.hostA.app[0].dscp 0
param *.hostA.app[0].packetName "\"UDPData-Standard\""
param *.hostA.app[1].typename "\"UdpBasicApp\""
param *.hostA.app[1].destAddresses "\"hostB\""
param *.hostA.app[1].destPort 5000
param *.hostA.app[1].messageLength 1000B
param *.hostA.app[1].sendInterval exponential(12ms)
param *.hostA.app[1].packetName "\"UDPData-Priority\""
param *.hostA.app[1].dscp 14
param *.radioMedium.typename "\"ApskScalarRadioMedium\""
param *.radioMedium.backgroundNoise.power -110dBm
param *.radioMedium.mediumLimitCache.centerFrequency 2.4GHz
param *.host*.wlan[0].radio.typename "\"ApskScalarRadio\""
param *.host*.wlan[0].radio.centerFrequency 2.4GHz
param *.host*.wlan[0].radio.bandwidth 5MHz
param *.host*.wlan[0].radio.transmitter.modulation "\"QPSK\""
param *.host*.wlan[0].radio.transmitter.power 10mW
param *.host*.wlan[0].radio.transmitter.preambleDuration 10us
param *.host*.wlan[0].radio.transmitter.headerLength 8B
param *.host*.wlan[0].radio.receiver.modulation "\"QPSK\""
param *.host*.wlan[0].radio.receiver.sensitivity -120dBm
param *.host*.wlan[0].radio.receiver.energyDetection -100dBm
param *.host*.wlan[0].radio.receiver.snirThreshold 4dB
param *.host*.ipv4.arp.typename "\"GlobalArp\""
param *.host*.forwarding true
param *.configurator.optimizeRoutes false
param *.hostA.numApps 1
param *.hostA.app[0].typename "\"UdpBasicApp\""
param *.hostA.app[0].destAddresses "\"hostB\""
param *.hostA.app[0].destPort 5000
param *.hostA.app[0].messageLength 1000B
param *.hostA.app[0].sendInterval exponential(12ms)
param *.hostA.app[0].packetName "\"UDPData\""
param *.hostB.numApps 1
param *.hostB.app[0].typename "\"UdpSink\""
param *.hostB.app[0].localPort 5000
param *.host*.wlan[0].typename "\"WirelessInterface\""
param *.host*.wlan[0].radio.typename "\"UnitDiskRadio\""
param *.host*.wlan[0].radio.transmitter.communicationRange 300m
param *.host*.wlan[0].radio.transmitter.interferenceRange 500m
param *.host*.wlan[0].mac.typename "\"CsmaCaMac\""
param *.host*.wlan[0].mac.ackTimeout 300us
param *.host*.wlan[0].mac.useAck true
param *.host*.wlan[0].queue.typename "\"DropTailQueue\""
param *.host*.**.bitrate 1Mbps
param *.hostA.wlan[0].radio.displayCommunicationRange true
param *.hostC.wlan[0].radio.displayCommunicationRange true
param *.configurator.addStaticRoutes false
param *.host*.typename "\"AodvRouter\""
param *.host*.mobility.typename "\"StationaryMobility\""
param *.host*.mobility.initialZ 0.1m
param *.physicalEnvironment.config "xmldoc(\"mine.xml\")"
param *.radioMedium.obstacleLoss.typename "\"IdealObstacleLoss\""
param *.visualizer.sceneVisualizer.descriptionFigure "\"title\""
param *.visualizer.physicalLinkVisualizer.displayLinks true
param *.visualizer.physicalLinkVisualizer.packetFilter "\"UDPData*\""

scalar Multihop.radioMedium.propagation "Arrival computation count" 36428
scalar Multihop.radioMedium "transmission count" 5204
scalar Multihop.radioMedium "signal send count" 36428
scalar Multihop.radioMedium "reception computation count" 36428
scalar Multihop.radioMedium "interference computation count" 100811
scalar Multihop.radioMedium "reception decision computation count" 15324
scalar Multihop.radioMedium "listening decision computation count" 50841
scalar Multihop.radioMedium "reception cache hit" 82.759648832201
attr unit %
scalar Multihop.radioMedium "interference cache hit" 66.666666666667
attr unit %
scalar Multihop.radioMedium "noise cache hit" 0
attr unit %
scalar Multihop.radioMedium "snir cache hit" 50
attr unit %
scalar Multihop.radioMedium "reception decision cache hit" 50
attr unit %
scalar Multihop.radioMedium "reception result cache hit" 0
attr unit %
scalar Multihop.hostA.lo[0].lo rcvdPkFromHl:count 0
attr interpolationmode none
attr source packetReceivedFromUpper
attr title "packets received from higher layer, count"
scalar Multihop.hostA.lo[0].lo rcvdPkFromHl:sum(packetBytes) 0
attr interpolationmode none
attr source packetReceivedFromUpper
attr title "packets received from higher layer, sum(packetBytes)"
scalar Multihop.hostA.lo[0].lo passedUpPk:count 0
attr interpolationmode none
attr source packetSentToUpper
attr title "packets passed to higher layer, count"
scalar Multihop.hostA.lo[0].lo passedUpPk:sum(packetBytes) 0
attr interpolationmode none
attr source packetSentToUpper
attr title "packets passed to higher layer, sum(packetBytes)"
scalar Multihop.hostA.wlan[0].mac.queue packetPopped:count 1131
attr interpolationmode none
attr title "packet popped, count"
scalar Multihop.hostA.wlan[0].mac.queue packetPopped:sum(packetBytes) 1179591
attr interpolationmode none
attr title "packet popped, sum(packetBytes)"
statistic Multihop.hostA.wlan[0].mac.queue queueingTime:histogram
field count 1131
field mean 5.764038609299
field stddev 3.8957461554318
field min 0
field max 13.301139840555
field sum 6519.1276671172
field sqrsum 54726.330633758
attr interpolationmode none
attr source queueingTime(packetPopped)
attr title "queueing times, histogram"
attr unit s
bin	-inf	0
bin	0	22
bin	0.2	10
bin	0.4	19
bin	0.6	26
bin	0.8	21
bin	1	17
bin	1.2	20
bin	1.4	21
bin	1.6	17
bin	1.8	13
bin	2	20
bin	2.2	25
bin	2.4	21
bin	2.6	23
bin	2.8	48
bin	3	70
bin	3.2	81
bin	3.4	22
bin	3.6	16
bin	3.8	20
bin	4	5
bin	4.2	2
bin	4.4	11
bin	4.6	17
bin	4.8	15
bin	5	14
bin	5.2	21
bin	5.4	21
bin	5.6	20
bin	5.8	21
bin	6	15
bin	6.2	13
bin	6.4	9
bin	6.6	0
bin	6.8	6
bin	7	7
bin	7.2	8
bin	7.4	1
bin	7.6	15
bin	7.8	17
bin	8	17
bin	8.2	15
bin	8.4	27
bin	8.6	6
bin	8.8	4
bin	9	20
bin	9.2	8
bin	9.4	26
bin	9.6	19
bin	9.8	14
bin	10	1
bin	10.2	4
bin	10.4	0
bin	10.6	1
bin	10.8	0
bin	11	9
bin	11.2	14
bin	11.4	20
bin	11.6	27
bin	11.8	32
bin	12	25
bin	12.2	0
bin	12.4	10
bin	12.6	23
bin	12.8	31
bin	13	3
bin	13.2	5
bin	13.4	0
scalar Multihop.hostA.wlan[0].mac.queue queueLength:max 1026
attr interpolationmode sample-hold
attr source "count(packetPushed) - count(packetPopped) - count(packetRemoved) - count(packetDropped)"
attr title "queue length, max"
scalar Multihop.hostA.wlan[0].mac.queue queueLength:timeavg 591.73369896518
attr interpolationmode sample-hold
attr source "count(packetPushed) - count(packetPopped) - count(packetRemoved) - count(packetDropped)"
attr title "queue length, timeavg"
scalar Multihop.hostA.wlan[0].mac.queue packetPushed:count 1574
attr interpolationmode none
attr title "packet pushed, count"
scalar Multihop.hostA.wlan[0].mac.queue packetPushed:sum(packetBytes) 1632590
attr interpolationmode none
attr title "packet pushed, sum(packetBytes)"
scalar Multihop.hostA.wlan[0].mac.queue packetDropQueueOverflow:count 0
attr interpolationmode none
attr source packetDropReasonIsQueueOverflow(packetDropped)
attr title "packet drops: queue overflow, count"
scalar Multihop.hostA.wlan[0].mac.queue packetDropQueueOverflow:sum(packetBytes) 0
attr interpolationmode none
attr source packetDropReasonIsQueueOverflow(packetDropped)
attr title "packet drops: queue overflow, sum(packetBytes)"
scalar Multihop.hostA.wlan[0].mac.queue packetRemoved:count 0
attr interpolationmode none
attr title "packets removed, count"
scalar Multihop.hostA.wlan[0].mac.queue packetRemoved:sum(packetBytes) 0
attr interpolationmode none
attr title "packets removed, sum(packetBytes)"
scalar Multihop.hostA.wlan[0].mac numRetry 281
scalar Multihop.hostA.wlan[0].mac numSentWithoutRetry 992
scalar Multihop.hostA.wlan[0].mac numGivenUp 6
scalar Multihop.hostA.wlan[0].mac numCollision 0
scalar Multihop.hostA.wlan[0].mac numSent 1117
scalar Multihop.hostA.wlan[0].mac numReceived 3
scalar Multihop.hostA.wlan[0].mac numSentBroadcast 7
scalar Multihop.hostA.wlan[0].mac numReceivedBroadcast 13
scalar Multihop.hostA.wlan[0].mac packetDropIncorrectlyReceived:count 0
attr interpolationmode none
attr source packetDropReasonIsIncorrectlyReceived(packetDropped)
attr title "packet drop: incorrectly received, count"
scalar Multihop.hostA.wlan[0].mac packetDropIncorrectlyReceived:sum(packetBytes) 0
attr interpolationmode none
attr source packetDropReasonIsIncorrectlyReceived(packetDropped)
attr title "packet drop: incorrectly received, sum(packetBytes)"
scalar Multihop.hostA.wlan[0].mac packetDropNotAddressedToUs:count 733
attr interpolationmode none
attr source packetDropReasonIsNotAddressedToUs(packetDropped)
attr title "packet drop: not addressed to us, count"
scalar Multihop.hostA.wlan[0].mac packetDropNotAddressedToUs:sum(packetBytes) 768917
attr interpolationmode none
attr source packetDropReasonIsNotAddressedToUs(packetDropped)
attr title "packet drop: not addressed to us, sum(packetBytes)"
scalar Multihop.hostA.wlan[0].mac packetDropQueueOverflow:count 0
attr interpolationmode none
attr source packetDropReasonIsQueueOverflow(packetDropped)
attr title "packet drop: queue overflow, count"
scalar Multihop.hostA.wlan[0].mac packetDropQueueOverflow:sum(packetBytes) 0
attr interpolationmode none
attr source packetDropReasonIsQueueOverflow(packetDropped)
attr title "packet drop: queue overflow, sum(packetBytes)"
scalar Multihop.hostA.wlan[0].mac packetDropRetryLimitReached:count 6
attr interpolationmode none
attr source packetDropReasonIsRetryLimitReached(packetDropped)
attr title "packet drop: retry limit reached, count"
scalar Multihop.hostA.wlan[0].mac packetDropRetryLimitReached:sum(packetBytes) 6294
attr interpolationmode none
attr source packetDropReasonIsRetryLimitReached(packetDropped)
attr title "packet drop: retry limit reached, sum(packetBytes)"
scalar Multihop.hostA.wlan[0].mac linkBroken:count 6
attr interpolationmode none
attr source linkBroken
attr title "link break, count"
statistic Multihop.hostA.wlan[0].radio minSnir:histogram
field count 1869
field mean 3122.8167701601
field stddev 1715.7966292969
field min 5.4377030090271
field max 4391.5383156971
field sum 5836544.5434292
field sqrsum 23725772860.57
attr source minimumSnir(packetSentToUpper)
attr title "Min SNIR, histogram"
bin	-inf	0
bin	0	2
bin	100	0
bin	200	0
bin	300	0
bin	400	0
bin	500	0
bin	600	0
bin	700	0
bin	800	659
bin	900	0
bin	1000	0
bin	1100	0
bin	1200	0
bin	1300	0
bin	1400	0
bin	1500	0
bin	1600	0
bin	1700	0
bin	1800	0
bin	1900	0
bin	2000	0
bin	2100	0
bin	2200	0
bin	2300	0
bin	2400	0
bin	2500	0
bin	2600	0
bin	2700	0
bin	2800	0
bin	2900	0
bin	3000	0
bin	3100	0
bin	3200	0
bin	3300	0
bin	3400	0
bin	3500	0
bin	3600	0
bin	3700	0
bin	3800	0
bin	3900	0
bin	4000	0
bin	4100	0
bin	4200	0
bin	4300	1208
bin	4400	0
bin	4500	0
bin	4600	0
bin	4700	0
bin	4800	0
bin	4900	0
bin	5000	0
bin	5100	0
bin	5200	0
bin	5300	0
statistic Multihop.hostA.wlan[0].radio packetErrorRate:histogram
field count 1869
field mean 7.484316953121e-13
field stddev 2.2873127299224e-11
field min 0
field max 6.9940941926916e-10
field sum 1.3988188385383e-09
field sqrsum 9.7834707152484e-19
attr source packetErrorRate(packetSentToUpper)
attr title "Packet error rate, histogram"
bin	-inf	0
bin	-0.5	0
bin	-0.48	0
bin	-0.46	0
bin	-0.44	0
bin	-0.42	0
bin	-0.4	0
bin	-0.38	0
bin	-0.36	0
bin	-0.34	0
bin	-0.32	0
bin	-0.3	0
bin	-0.28	0
bin	-0.26	0
bin	-0.24	0
bin	-0.22	0
bin	-0.2	0
bin	-0.18	0
bin	-0.16	0
bin	-0.14	0
bin	-0.12	0
bin	-0.1	0
bin	-0.08	0
bin	-0.06	0
bin	-0.04	0
bin	-0.02	0
bin	0	1869
bin	0.02	0
bin	0.04	0
bin	0.06	0
bin	0.08	0
bin	0.1	0
bin	0.12	0
bin	0.14	0
bin	0.16	0
bin	0.18	0
bin	0.2	0
bin	0.22	0
bin	0.24	0
bin	0.26	0
bin	0.28	0
bin	0.3	0
bin	0.32	0
bin	0.34	0
bin	0.36	0
bin	0.38	0
bin	0.4	0
bin	0.42	0
bin	0.44	0
bin	0.46	0
bin	0.48	0
bin	0.5	0
statistic Multihop.hostA.wlan[0].radio bitErrorRate:histogram
field count 1869
field mean 8.8542519921771e-17
field stddev 2.7059841829924e-15
field min 0
field max 8.2742984866895e-14
field sum 1.6548596973379e-13
field sqrsum 1.3692803089366e-26
attr source bitErrorRate(packetSentToUpper)
attr title "Bit error rate, histogram"
bin	-inf	0
bin	-0.5	0
bin	-0.48	0
bin	-0.46	0
bin	-0.44	0
bin	-0.42	0
bin	-0.4	0
bin	-0.38	0
bin	-0.36	0
bin	-0.34	0
bin	-0.32	0
bin	-0.3	0
bin	-0.28	0
bin	-0.26	0
bin	-0.24	0
bin	-0.22	0
bin	-0.2	0
bin	-0.18	0
bin	-0.16	0
bin	-0.14	0
bin	-0.12	0
bin	-0.1	0
bin	-0.08	0
bin	-0.06	0
bin	-0.04	0
bin	-0.02	0
bin	0	1869
bin	0.02	0
bin	0.04	0
bin	0.06	0
bin	0.08	0
bin	0.1	0
bin	0.12	0
bin	0.14	0
bin	0.16	0
bin	0.18	0
bin	0.2	0
bin	0.22	0
bin	0.24	0
bin	0.26	0
bin	0.28	0
bin	0.3	0
bin	0.32	0
bin	0.34	0
bin	0.36	0
bin	0.38	0
bin	0.4	0
bin	0.42	0
bin	0.44	0
bin	0.46	0
bin	0.48	0
bin	0.5	0
statistic Multihop.hostA.wlan[0].radio symbolErrorRate:histogram
field count 1869
field mean 1.7701790333777e-16
field stddev 5.4099165797597e-15
field min 0
field max 1.6542323066915e-13
field sum 3.308464613383e-13
field sqrsum 5.4729690490037e-26
attr source symbolErrorRate(packetSentToUpper)
attr title "Symbol error rate, histogram"
bin	-inf	0
bin	-0.5	0
bin	-0.48	0
bin	-0.46	0
bin	-0.44	0
bin	-0.42	0
bin	-0.4	0
bin	-0.38	0
bin	-0.36	0
bin	-0.34	0
bin	-0.32	0
bin	-0.3	0
bin	-0.28	0
bin	-0.26	0
bin	-0.24	0
bin	-0.22	0
bin	-0.2	0
bin	-0.18	0
bin	-0.16	0
bin	-0.14	0
bin	-0.12	0
bin	-0.1	0
bin	-0.08	0
bin	-0.06	0
bin	-0.04	0
bin	-0.02	0
bin	0	1869
bin	0.02	0
bin	0.04	0
bin	0.06	0
bin	0.08	0
bin	0.1	0
bin	0.12	0
bin	0.14	0
bin	0.16	0
bin	0.18	0
bin	0.2	0
bin	0.22	0
bin	0.24	0
bin	0.26	0
bin	0.28	0
bin	0.3	0
bin	0.32	0
bin	0.34	0
bin	0.36	0
bin	0.38	0
bin	0.4	0
bin	0.42	0
bin	0.44	0
bin	0.46	0
bin	0.48	0
bin	0.5	0
scalar Multihop.hostA.wlan[0].radio transmissionState:count 5656
attr interpolationmode sample-hold
attr source transmissionStateChanged
attr title "Radio transmission state, count"
scalar Multihop.hostA.wlan[0].radio receptionState:count 6585
attr interpolationmode sample-hold
attr source receptionStateChanged
attr title "Radio reception state, count"
scalar Multihop.hostA.wlan[0].radio radioMode:count 2831
attr interpolationmode sample-hold
attr source radioModeChanged
attr title "Radio mode, count"
scalar Multihop.hostA.ipv4.ip packetDropAddressResolutionFailed:count 0
attr interpolationmode none
attr source packetDropReasonIsAddressResolutionFailed(packetDropped)
attr title "packet drop: address resolution failed, count"
scalar Multihop.hostA.ipv4.ip packetDropAddressResolutionFailed:sum(packetBytes) 0
attr interpolationmode none
attr source packetDropReasonIsAddressResolutionFailed(packetDropped)
attr title "packet drop: address resolution failed, sum(packetBytes)"
scalar Multihop.hostA.ipv4.ip packetDropHopLimitReached:count 0
attr interpolationmode none
attr source packetDropReasonIsHopLimitReached(packetDropped)
attr title "packet drop: hop limit reached, count"
scalar Multihop.hostA.ipv4.ip packetDropHopLimitReached:sum(packetBytes) 0
attr interpolationmode none
attr source packetDropReasonIsHopLimitReached(packetDropped)
attr title "packet drop: hop limit reached, sum(packetBytes)"
scalar Multihop.hostA.ipv4.ip packetDropForwardingDisabled:count 0
attr interpolationmode none
attr source packetDropReasonIsForwardingDisabled(packetDropped)
attr title "packet drop: forwarding disabled, count"
scalar Multihop.hostA.ipv4.ip packetDropForwardingDisabled:sum(packetBytes) 0
attr interpolationmode none
attr source packetDropReasonIsForwardingDisabled(packetDropped)
attr title "packet drop: forwarding disabled, sum(packetBytes)"
scalar Multihop.hostA.ipv4.ip packetDropNoInterfaceFound:count 0
attr interpolationmode none
attr source packetDropReasonIsNoInterfaceFound(packetDropped)
attr title "packet drop: no interface found, count"
scalar Multihop.hostA.ipv4.ip packetDropNoInterfaceFound:sum(packetBytes) 0
attr interpolationmode none
attr source packetDropReasonIsNoInterfaceFound(packetDropped)
attr title "packet drop: no interface found, sum(packetBytes)"
scalar Multihop.hostA.ipv4.ip packetDropNoRouteFound:count 0
attr interpolationmode none
attr source packetDropReasonIsNoRouteFound(packetDropped)
attr title "packet drop: no route found, count"
scalar Multihop.hostA.ipv4.ip packetDropNoRouteFound:sum(packetBytes) 0
attr interpolationmode none
attr source packetDropReasonIsNoRouteFound(packetDropped)
attr title "packet drop: no route found, sum(packetBytes)"
scalar Multihop.hostA.ipv4.ip packetDropUndefined:count 0
attr interpolationmode none
attr source packetDropReasonIsUndefined(packetDropped)
attr title "packet drop: undefined, count"
scalar Multihop.hostA.ipv4.ip packetDropUndefined:sum(packetBytes) 0
attr interpolationmode none
attr source packetDropReasonIsUndefined(packetDropped)
attr title "packet drop: undefined, sum(packetBytes)"
scalar Multihop.hostA.udp packetReceived:count 16
attr interpolationmode none
attr source packetReceived
attr title "packets received, count"
scalar Multihop.hostA.udp packetReceived:sum(packetBytes) 504
attr interpolationmode none
attr source packetReceived
attr title "packets received, sum(packetBytes)"
scalar Multihop.hostA.udp packetSent:count 3403
attr interpolationmode none
attr source packetSent
attr title "packets sent, count"
scalar Multihop.hostA.udp packetSent:sum(packetBytes) 3411688
attr interpolationmode none
attr source packetSent
attr title "packets sent, sum(packetBytes)"
scalar Multihop.hostA.udp passedUpPk:count 16
attr interpolationmode none
attr source packetSentToUpper
attr title "packets passed up, count"
scalar Multihop.hostA.udp droppedPkWrongPort:count 0
attr interpolationmode none
attr source packetDropReasonIsNoPortFound(packetDropped)
attr title "packets dropped (wrong port), count"
scalar Multihop.hostA.udp droppedPkBadChecksum:count 0
attr interpolationmode none
attr source packetDropReasonIsIncorrectlyReceived(packetDropped)
attr title "packets dropped (checksum error), count"
scalar Multihop.hostA.app[0] "packets sent" 1714
scalar Multihop.hostA.app[0] "packets received" 0
scalar Multihop.hostA.app[0] packetReceived:count 0
attr interpolationmode none
attr source packetReceived
attr title "packets received, count"
scalar Multihop.hostA.app[0] packetReceived:sum(packetBytes) 0
attr interpolationmode none
attr source packetReceived
attr title "packets received, sum(packetBytes)"
statistic Multihop.hostA.app[0] rcvdPkLifetime:stats
field count 0
field mean nan
field stddev nan
field min nan
field max nan
field sum 0
field sqrsum 0
attr interpolationmode none
attr source dataAge(packetReceived)
attr title "received packet lifetime, stats"
attr unit s
scalar Multihop.hostA.app[0] packetSent:count 1714
attr interpolationmode none
attr source packetSent
attr title "packets sent, count"
scalar Multihop.hostA.app[0] packetSent:sum(packetBytes) 1714000
attr interpolationmode none
attr source packetSent
attr title "packets sent, sum(packetBytes)"
scalar Multihop.hostA.app[1] "packets sent" 1670
scalar Multihop.hostA.app[1] "packets received" 0
scalar Multihop.hostA.app[1] packetReceived:count 0
attr interpolationmode none
attr source packetReceived
attr title "packets received, count"
scalar Multihop.hostA.app[1] packetReceived:sum(packetBytes) 0
attr interpolationmode none
attr source packetReceived
attr title "packets received, sum(packetBytes)"
statistic Multihop.hostA.app[1] rcvdPkLifetime:stats
field count 0
field mean nan
field stddev nan
field min nan
field max nan
field sum 0
field sqrsum 0
attr interpolationmode none
attr source dataAge(packetReceived)
attr title "received packet lifetime, stats"
attr unit s
scalar Multihop.hostA.app[1] packetSent:count 1670
attr interpolationmode none
attr source packetSent
attr title "packets sent, count"
scalar Multihop.hostA.app[1] packetSent:sum(packetBytes) 1670000
attr interpolationmode none
attr source packetSent
attr title "packets sent, sum(packetBytes)"
scalar Multihop.hostB.lo[0].lo rcvdPkFromHl:count 0
attr interpolationmode none
attr source packetReceivedFromUpper
attr title "packets received from higher layer, count"
scalar Multihop.hostB.lo[0].lo rcvdPkFromHl:sum(packetBytes) 0
attr interpolationmode none
attr source packetReceivedFromUpper
attr title "packets received from higher layer, sum(packetBytes)"
scalar Multihop.hostB.lo[0].lo passedUpPk:count 0
attr interpolationmode none
attr source packetSentToUpper
attr title "packets passed to higher layer, count"
scalar Multihop.hostB.lo[0].lo passedUpPk:sum(packetBytes) 0
attr interpolationmode none
attr source packetSentToUpper
attr title "packets passed to higher layer, sum(packetBytes)"
scalar Multihop.hostB.wlan[0].mac.queue packetPopped:count 9
attr interpolationmode none
attr title "packet popped, count"
scalar Multihop.hostB.wlan[0].mac.queue packetPopped:sum(packetBytes) 625
attr interpolationmode none
attr title "packet popped, sum(packetBytes)"
statistic Multihop.hostB.wlan[0].mac.queue queueingTime:histogram
field count 9
field mean 0.001110494466
field stddev 0.002663105016027
field min 0
field max 0.007991482122
field sum 0.009994450194
field sqrsum 6.7835808242257e-05
attr interpolationmode none
attr source queueingTime(packetPopped)
attr title "queueing times, histogram"
attr unit s
bin	-inf	0
bin	0	7
bin	0.0002	0
bin	0.0004	0
bin	0.0006	0
bin	0.0008	0
bin	0.001	0
bin	0.0012	0
bin	0.0014	0
bin	0.0016	0
bin	0.0018	1
bin	0.002	0
bin	0.0022	0
bin	0.0024	0
bin	0.0026	0
bin	0.0028	0
bin	0.003	0
bin	0.0032	0
bin	0.0034	0
bin	0.0036	0
bin	0.0038	0
bin	0.004	0
bin	0.0042	0
bin	0.0044	0
bin	0.0046	0
bin	0.0048	0
bin	0.005	0
bin	0.0052	0
bin	0.0054	0
bin	0.0056	0
bin	0.0058	0
bin	0.006	0
bin	0.0062	0
bin	0.0064	0
bin	0.0066	0
bin	0.0068	0
bin	0.007	0
bin	0.0072	0
bin	0.0074	0
bin	0.0076	0
bin	0.0078	1
bin	0.008	0
bin	0.0082	0
bin	0.0084	0
bin	0.0086	0
bin	0.0088	0
bin	0.009	0
bin	0.0092	0
bin	0.0094	0
bin	0.0096	0
bin	0.0098	0
bin	0.01	0
scalar Multihop.hostB.wlan[0].mac.queue queueLength:max 1
attr interpolationmode sample-hold
attr source "count(packetPushed) - count(packetPopped) - count(packetRemoved) - count(packetDropped)"
attr title "queue length, max"
scalar Multihop.hostB.wlan[0].mac.queue queueLength:timeavg 0.00050846711131134
attr interpolationmode sample-hold
attr source "count(packetPushed) - count(packetPopped) - count(packetRemoved) - count(packetDropped)"
attr title "queue length, timeavg"
scalar Multihop.hostB.wlan[0].mac.queue packetPushed:count 9
attr interpolationmode none
attr title "packet pushed, count"
scalar Multihop.hostB.wlan[0].mac.queue packetPushed:sum(packetBytes) 625
attr interpolationmode none
attr title "packet pushed, sum(packetBytes)"
scalar Multihop.hostB.wlan[0].mac.queue packetDropQueueOverflow:count 0
attr interpolationmode none
attr source packetDropReasonIsQueueOverflow(packetDropped)
attr title "packet drops: queue overflow, count"
scalar Multihop.hostB.wlan[0].mac.queue packetDropQueueOverflow:sum(packetBytes) 0
attr interpolationmode none
attr source packetDropReasonIsQueueOverflow(packetDropped)
attr title "packet drops: queue overflow, sum(packetBytes)"
scalar Multihop.hostB.wlan[0].mac.queue packetRemoved:count 0
attr interpolationmode none
attr title "packets removed, count"
scalar Multihop.hostB.wlan[0].mac.queue packetRemoved:sum(packetBytes) 0
attr interpolationmode none
attr title "packets removed, sum(packetBytes)"
scalar Multihop.hostB.wlan[0].mac numRetry 2
scalar Multihop.hostB.wlan[0].mac numSentWithoutRetry 3
scalar Multihop.hostB.wlan[0].mac numGivenUp 0
scalar Multihop.hostB.wlan[0].mac numCollision 2
scalar Multihop.hostB.wlan[0].mac numSent 5
scalar Multihop.hostB.wlan[0].mac numReceived 628
scalar Multihop.hostB.wlan[0].mac numSentBroadcast 4
scalar Multihop.hostB.wlan[0].mac numReceivedBroadcast 14
scalar Multihop.hostB.wlan[0].mac packetDropIncorrectlyReceived:count 2
attr interpolationmode none
attr source packetDropReasonIsIncorrectlyReceived(packetDropped)
attr title "packet drop: incorrectly received, count"
scalar Multihop.hostB.wlan[0].mac packetDropIncorrectlyReceived:sum(packetBytes) 36
attr interpolationmode none
attr source packetDropReasonIsIncorrectlyReceived(packetDropped)
attr title "packet drop: incorrectly received, sum(packetBytes)"
scalar Multihop.hostB.wlan[0].mac packetDropNotAddressedToUs:count 11
attr interpolationmode none
attr source packetDropReasonIsNotAddressedToUs(packetDropped)
attr title "packet drop: not addressed to us, count"
scalar Multihop.hostB.wlan[0].mac packetDropNotAddressedToUs:sum(packetBytes) 759
attr interpolationmode none
attr source packetDropReasonIsNotAddressedToUs(packetDropped)
attr title "packet drop: not addressed to us, sum(packetBytes)"
scalar Multihop.hostB.wlan[0].mac packetDropQueueOverflow:count 0
attr interpolationmode none
attr source packetDropReasonIsQueueOverflow(packetDropped)
attr title "packet drop: queue overflow, count"
scalar Multihop.hostB.wlan[0].mac packetDropQueueOverflow:sum(packetBytes) 0
attr interpolationmode none
attr source packetDropReasonIsQueueOverflow(packetDropped)
attr title "packet drop: queue overflow, sum(packetBytes)"
scalar Multihop.hostB.wlan[0].mac packetDropRetryLimitReached:count 0
attr interpolationmode none
attr source packetDropReasonIsRetryLimitReached(packetDropped)
attr title "packet drop: retry limit reached, count"
scalar Multihop.hostB.wlan[0].mac packetDropRetryLimitReached:sum(packetBytes) 0
attr interpolationmode none
attr source packetDropReasonIsRetryLimitReached(packetDropped)
attr title "packet drop: retry limit reached, sum(packetBytes)"
scalar Multihop.hostB.wlan[0].mac linkBroken:count 0
attr interpolationmode none
attr source linkBroken
attr title "link break, count"
statistic Multihop.hostB.wlan[0].radio minSnir:histogram
field count 1239
field mean 2659.9801762289
field stddev 1793.7483305497
field min 0.1836316545062
field max 4391.5383156971
field sum 3295715.4383476
field sqrsum 12749843677.303
attr source minimumSnir(packetSentToUpper)
attr title "Min SNIR, histogram"
bin	-inf	0
bin	0	2
bin	100	0
bin	200	0
bin	300	0
bin	400	0
bin	500	0
bin	600	0
bin	700	0
bin	800	596
bin	900	0
bin	1000	0
bin	1100	0
bin	1200	0
bin	1300	0
bin	1400	0
bin	1500	0
bin	1600	0
bin	1700	0
bin	1800	0
bin	1900	0
bin	2000	0
bin	2100	0
bin	2200	0
bin	2300	0
bin	2400	0
bin	2500	0
bin	2600	0
bin	2700	0
bin	2800	0
bin	2900	0
bin	3000	0
bin	3100	0
bin	3200	0
bin	3300	0
bin	3400	0
bin	3500	0
bin	3600	0
bin	3700	0
bin	3800	0
bin	3900	0
bin	4000	0
bin	4100	0
bin	4200	0
bin	4300	641
bin	4400	0
bin	4500	0
bin	4600	0
bin	4700	0
bin	4800	0
bin	4900	0
bin	5000	0
bin	5100	0
bin	5200	0
bin	5300	0
statistic Multihop.hostB.wlan[0].radio packetErrorRate:histogram
field count 1239
field mean 0.0016142049957671
field stddev 0.040160940056835
field min 0
field max 0.99999999487771
field sum 1.9999999897554
field sqrsum 1.9999999795109
attr source packetErrorRate(packetSentToUpper)
attr title "Packet error rate, histogram"
bin	-inf	0
bin	-0.5	0
bin	-0.48	0
bin	-0.46	0
bin	-0.44	0
bin	-0.42	0
bin	-0.4	0
bin	-0.38	0
bin	-0.36	0
bin	-0.34	0
bin	-0.32	0
bin	-0.3	0
bin	-0.28	0
bin	-0.26	0
bin	-0.24	0
bin	-0.22	0
bin	-0.2	0
bin	-0.18	0
bin	-0.16	0
bin	-0.14	0
bin	-0.12	0
bin	-0.1	0
bin	-0.08	0
bin	-0.06	0
bin	-0.04	0
bin	-0.02	0
bin	0	1237
bin	0.02	0
bin	0.04	0
bin	0.06	0
bin	0.08	0
bin	0.1	0
bin	0.12	0
bin	0.14	0
bin	0.16	0
bin	0.18	0
bin	0.2	0
bin	0.22	0
bin	0.24	0
bin	0.26	0
bin	0.28	0
bin	0.3	0
bin	0.32	0
bin	0.34	0
bin	0.36	0
bin	0.38	0
bin	0.4	0
bin	0.42	0
bin	0.44	0
bin	0.46	0
bin	0.48	0
bin	0.5	0
bin	0.52	0
bin	0.54	0
bin	0.56	0
bin	0.58	0
bin	0.6	0
bin	0.62	0
bin	0.64	0
bin	0.66	0
bin	0.68	0
bin	0.7	0
bin	0.72	0
bin	0.74	0
bin	0.76	0
bin	0.78	0
bin	0.8	0
bin	0.82	0
bin	0.84	0
bin	0.86	0
bin	0.88	0
bin	0.9	0
bin	0.92	0
bin	0.94	0
bin	0.96	0
bin	0.98	2
bin	1	0
statistic Multihop.hostB.wlan[0].radio bitErrorRate:histogram
field count 1239
field mean 0.00014155228813633
field stddev 0.0035217788159857
field min 0
field max 0.087691642500455
field sum 0.17538328500091
field sqrsum 0.015379648328855
attr source bitErrorRate(packetSentToUpper)
attr title "Bit error rate, histogram"
bin	-inf	0
bin	-0.5	0
bin	-0.48	0
bin	-0.46	0
bin	-0.44	0
bin	-0.42	0
bin	-0.4	0
bin	-0.38	0
bin	-0.36	0
bin	-0.34	0
bin	-0.32	0
bin	-0.3	0
bin	-0.28	0
bin	-0.26	0
bin	-0.24	0
bin	-0.22	0
bin	-0.2	0
bin	-0.18	0
bin	-0.16	0
bin	-0.14	0
bin	-0.12	0
bin	-0.1	0
bin	-0.08	0
bin	-0.06	0
bin	-0.04	0
bin	-0.02	0
bin	0	1237
bin	0.02	0
bin	0.04	0
bin	0.06	0
bin	0.08	2
bin	0.1	0
bin	0.12	0
bin	0.14	0
bin	0.16	0
bin	0.18	0
bin	0.2	0
bin	0.22	0
bin	0.24	0
bin	0.26	0
bin	0.28	0
bin	0.3	0
bin	0.32	0
bin	0.34	0
bin	0.36	0
bin	0.38	0
bin	0.4	0
bin	0.42	0
bin	0.44	0
bin	0.46	0
bin	0.48	0
bin	0.5	0
statistic Multihop.hostB.wlan[0].radio symbolErrorRate:histogram
field count 1239
field mean 0.00027069162362628
field stddev 0.0067347270630743
field min 0
field max 0.16769346083648
field sum 0.33538692167296
field sqrsum 0.056242193614633
attr source symbolErrorRate(packetSentToUpper)
attr title "Symbol error rate, histogram"
bin	-inf	0
bin	-0.5	0
bin	-0.48	0
bin	-0.46	0
bin	-0.44	0
bin	-0.42	0
bin	-0.4	0
bin	-0.38	0
bin	-0.36	0
bin	-0.34	0
bin	-0.32	0
bin	-0.3	0
bin	-0.28	0
bin	-0.26	0
bin	-0.24	0
bin	-0.22	0
bin	-0.2	0
bin	-0.18	0
bin	-0.16	0
bin	-0.14	0
bin	-0.12	0
bin	-0.1	0
bin	-0.08	0
bin	-0.06	0
bin	-0.04	0
bin	-0.02	0
bin	0	1237
bin	0.02	0
bin	0.04	0
bin	0.06	0
bin	0.08	0
bin	0.1	0
bin	0.12	0
bin	0.14	0
bin	0.16	2
bin	0.18	0
bin	0.2	0
bin	0.22	0
bin	0.24	0
bin	0.26	0
bin	0.28	0
bin	0.3	0
bin	0.32	0
bin	0.34	0
bin	0.36	0
bin	0.38	0
bin	0.4	0
bin	0.42	0
bin	0.44	0
bin	0.46	0
bin	0.48	0
bin	0.5	0
scalar Multihop.hostB.wlan[0].radio transmissionState:count 2556
attr interpolationmode sample-hold
attr source transmissionStateChanged
attr title "Radio transmission state, count"
scalar Multihop.hostB.wlan[0].radio receptionState:count 3757
attr interpolationmode sample-hold
attr source receptionStateChanged
attr title "Radio reception state, count"
scalar Multihop.hostB.wlan[0].radio radioMode:count 1281
attr interpolationmode sample-hold
attr source radioModeChanged
attr title "Radio mode, count"
scalar Multihop.hostB.ipv4.ip packetDropAddressResolutionFailed:count 0
attr interpolationmode none
attr source packetDropReasonIsAddressResolutionFailed(packetDropped)
attr title "packet drop: address resolution failed, count"
scalar Multihop.hostB.ipv4.ip packetDropAddressResolutionFailed:sum(packetBytes) 0
attr interpolationmode none
attr source packetDropReasonIsAddressResolutionFailed(packetDropped)
attr title "packet drop: address resolution failed, sum(packetBytes)"
scalar Multihop.hostB.ipv4.ip packetDropHopLimitReached:count 0
attr interpolationmode none
attr source packetDropReasonIsHopLimitReached(packetDropped)
attr title "packet drop: hop limit reached, count"
scalar Multihop.hostB.ipv4.ip packetDropHopLimitReached:sum(packetBytes) 0
attr interpolationmode none
attr source packetDropReasonIsHopLimitReached(packetDropped)
attr title "packet drop: hop limit reached, sum(packetBytes)"
scalar Multihop.hostB.ipv4.ip packetDropForwardingDisabled:count 0
attr interpolationmode none
attr source packetDropReasonIsForwardingDisabled(packetDropped)
attr title "packet drop: forwarding disabled, count"
scalar Multihop.hostB.ipv4.ip packetDropForwardingDisabled:sum(packetBytes) 0
attr interpolationmode none
attr source packetDropReasonIsForwardingDisabled(packetDropped)
attr title "packet drop: forwarding disabled, sum(packetBytes)"
scalar Multihop.hostB.ipv4.ip packetDropNoInterfaceFound:count 0
attr interpolationmode none
attr source packetDropReasonIsNoInterfaceFound(packetDropped)
attr title "packet drop: no interface found, count"
scalar Multihop.hostB.ipv4.ip packetDropNoInterfaceFound:sum(packetBytes) 0
attr interpolationmode none
attr source packetDropReasonIsNoInterfaceFound(packetDropped)
attr title "packet drop: no interface found, sum(packetBytes)"
scalar Multihop.hostB.ipv4.ip packetDropNoRouteFound:count 0
attr interpolationmode none
attr source packetDropReasonIsNoRouteFound(packetDropped)
attr title "packet drop: no route found, count"
scalar Multihop.hostB.ipv4.ip packetDropNoRouteFound:sum(packetBytes) 0
attr interpolationmode none
attr source packetDropReasonIsNoRouteFound(packetDropped)
attr title "packet drop: no route found, sum(packetBytes)"
scalar Multihop.hostB.ipv4.ip packetDropUndefined:count 0
attr interpolationmode none
attr source packetDropReasonIsUndefined(packetDropped)
attr title "packet drop: undefined, count"
scalar Multihop.hostB.ipv4.ip packetDropUndefined:sum(packetBytes) 0
attr interpolationmode none
attr source packetDropReasonIsUndefined(packetDropped)
attr title "packet drop: undefined, sum(packetBytes)"
scalar Multihop.hostB.udp packetReceived:count 642
attr interpolationmode none
attr source packetReceived
attr title "packets received, count"
scalar Multihop.hostB.udp packetReceived:sum(packetBytes) 632496
attr interpolationmode none
attr source packetReceived
attr title "packets received, sum(packetBytes)"
scalar Multihop.hostB.udp packetSent:count 9
attr interpolationmode none
attr source packetSent
attr title "packets sent, count"
scalar Multihop.hostB.udp packetSent:sum(packetBytes) 256
attr interpolationmode none
attr source packetSent
attr title "packets sent, sum(packetBytes)"
scalar Multihop.hostB.udp passedUpPk:count 642
attr interpolationmode none
attr source packetSentToUpper
attr title "packets passed up, count"
scalar Multihop.hostB.udp droppedPkWrongPort:count 0
attr interpolationmode none
attr source packetDropReasonIsNoPortFound(packetDropped)
attr title "packets dropped (wrong port), count"
scalar Multihop.hostB.udp droppedPkBadChecksum:count 0
attr interpolationmode none
attr source packetDropReasonIsIncorrectlyReceived(packetDropped)
attr title "packets dropped (checksum error), count"
scalar Multihop.hostB.app[0] packetReceived:count 627
attr interpolationmode none
attr source packetReceived
attr title "packets received, count"
scalar Multihop.hostB.app[0] packetReceived:sum(packetBytes) 627000
attr interpolationmode none
attr source packetReceived
attr title "packets received, sum(packetBytes)"
statistic Multihop.hostB.app[0] endToEndDelay:histogram
field count 627
field mean 9.6592030654632
field stddev 5.223451660711
field min 0.36711433816
field max 17.927761337084
field sum 6056.3203220454
field sqrsum 75579.291799746
attr interpolationmode none
attr source dataAge(packetReceived)
attr title "end-to-end delay, histogram"
attr unit s
bin	-inf	0
bin	0	4
bin	0.5	22
bin	1	24
bin	1.5	25
bin	2	19
bin	2.5	18
bin	3	3
bin	3.5	11
bin	4	6
bin	4.5	17
bin	5	23
bin	5.5	8
bin	6	17
bin	6.5	15
bin	7	14
bin	7.5	19
bin	8	4
bin	8.5	9
bin	9	7
bin	9.5	19
bin	10	38
bin	10.5	7
bin	11	6
bin	11.5	21
bin	12	46
bin	12.5	12
bin	13	20
bin	13.5	51
bin	14	33
bin	14.5	13
bin	15	1
bin	15.5	0
bin	16	36
bin	16.5	21
bin	17	25
bin	17.5	13
bin	18	0
bin	18.5	0
bin	19	0
bin	19.5	0
bin	20	0
bin	20.5	0
bin	21	0
bin	21.5	0
bin	22	0
bin	22.5	0
scalar Multihop.hostC.lo[0].lo rcvdPkFromHl:count 0
attr interpolationmode none
attr source packetReceivedFromUpper
attr title "packets received from higher layer, count"
scalar Multihop.hostC.lo[0].lo rcvdPkFromHl:sum(packetBytes) 0
attr interpolationmode none
attr source packetReceivedFromUpper
attr title "packets received from higher layer, sum(packetBytes)"
scalar Multihop.hostC.lo[0].lo passedUpPk:count 0
attr interpolationmode none
attr source packetSentToUpper
attr title "packets passed to higher layer, count"
scalar Multihop.hostC.lo[0].lo passedUpPk:sum(packetBytes) 0
attr interpolationmode none
attr source packetSentToUpper
attr title "packets passed to higher layer, sum(packetBytes)"
scalar Multihop.hostC.wlan[0].mac.queue packetPopped:count 203
attr interpolationmode none
attr title "packet popped, count"
scalar Multihop.hostC.wlan[0].mac.queue packetPopped:sum(packetBytes) 205131
attr interpolationmode none
attr title "packet popped, sum(packetBytes)"
statistic Multihop.hostC.wlan[0].mac.queue queueingTime:histogram
field count 203
field mean 7.2221207236675
field stddev 3.2218250124576
field min 0
field max 12.199679948732
field sum 1466.0905069045
field sqrsum 12685.074227689
attr interpolationmode none
attr source queueingTime(packetPopped)
attr title "queueing times, histogram"
attr unit s
bin	-inf	0
bin	0	15
bin	0.2	0
bin	0.4	1
bin	0.6	0
bin	0.8	1
bin	1	0
bin	1.2	0
bin	1.4	7
bin	1.6	0
bin	1.8	0
bin	2	0
bin	2.2	0
bin	2.4	0
bin	2.6	0
bin	2.8	0
bin	3	0
bin	3.2	1
bin	3.4	0
bin	3.6	10
bin	3.8	5
bin	4	0
bin	4.2	0
bin	4.4	0
bin	4.6	0
bin	4.8	0
bin	5	0
bin	5.2	0
bin	5.4	0
bin	5.6	3
bin	5.8	16
bin	6	8
bin	6.2	11
bin	6.4	0
bin	6.6	0
bin	6.8	0
bin	7	0
bin	7.2	0
bin	7.4	1
bin	7.6	11
bin	7.8	9
bin	8	9
bin	8.2	0
bin	8.4	1
bin	8.6	5
bin	8.8	28
bin	9	20
bin	9.2	11
bin	9.4	4
bin	9.6	0
bin	9.8	0
bin	10	0
bin	10.2	0
bin	10.4	0
bin	10.6	0
bin	10.8	0
bin	11	11
bin	11.2	1
bin	11.4	0
bin	11.6	0
bin	11.8	3
bin	12	11
bin	12.2	0
bin	12.4	0
bin	12.6	0
bin	12.8	0
bin	13	0
bin	13.2	0
bin	13.4	0
bin	13.6	0
bin	13.8	0
bin	14	0
bin	14.2	0
bin	14.4	0
bin	14.6	0
bin	14.8	0
bin	15	0
bin	15.2	0
bin	15.4	0
scalar Multihop.hostC.wlan[0].mac.queue queueLength:max 244
attr interpolationmode sample-hold
attr source "count(packetPushed) - count(packetPopped) - count(packetRemoved) - count(packetDropped)"
attr title "queue length, max"
scalar Multihop.hostC.wlan[0].mac.queue queueLength:timeavg 114.32953924496
attr interpolationmode sample-hold
attr source "count(packetPushed) - count(packetPopped) - count(packetRemoved) - count(packetDropped)"
attr title "queue length, timeavg"
scalar Multihop.hostC.wlan[0].mac.queue packetPushed:count 278
attr interpolationmode none
attr title "packet pushed, count"
scalar Multihop.hostC.wlan[0].mac.queue packetPushed:sum(packetBytes) 272098
attr interpolationmode none
attr title "packet pushed, sum(packetBytes)"
scalar Multihop.hostC.wlan[0].mac.queue packetDropQueueOverflow:count 0
attr interpolationmode none
attr source packetDropReasonIsQueueOverflow(packetDropped)
attr title "packet drops: queue overflow, count"
scalar Multihop.hostC.wlan[0].mac.queue packetDropQueueOverflow:sum(packetBytes) 0
attr interpolationmode none
attr source packetDropReasonIsQueueOverflow(packetDropped)
attr title "packet drops: queue overflow, sum(packetBytes)"
scalar Multihop.hostC.wlan[0].mac.queue packetRemoved:count 0
attr interpolationmode none
attr title "packets removed, count"
scalar Multihop.hostC.wlan[0].mac.queue packetRemoved:sum(packetBytes) 0
attr interpolationmode none
attr title "packets removed, sum(packetBytes)"
scalar Multihop.hostC.wlan[0].mac numRetry 126
scalar Multihop.hostC.wlan[0].mac numSentWithoutRetry 125
scalar Multihop.hostC.wlan[0].mac numGivenUp 3
scalar Multihop.hostC.wlan[0].mac numCollision 219
scalar Multihop.hostC.wlan[0].mac numSent 193
scalar Multihop.hostC.wlan[0].mac numReceived 888
scalar Multihop.hostC.wlan[0].mac numSentBroadcast 6
scalar Multihop.hostC.wlan[0].mac numReceivedBroadcast 20
scalar Multihop.hostC.wlan[0].mac packetDropIncorrectlyReceived:count 219
attr interpolationmode none
attr source packetDropReasonIsIncorrectlyReceived(packetDropped)
attr title "packet drop: incorrectly received, count"
scalar Multihop.hostC.wlan[0].mac packetDropIncorrectlyReceived:sum(packetBytes) 228755
attr interpolationmode none
attr source packetDropReasonIsIncorrectlyReceived(packetDropped)
attr title "packet drop: incorrectly received, sum(packetBytes)"
scalar Multihop.hostC.wlan[0].mac packetDropNotAddressedToUs:count 709
attr interpolationmode none
attr source packetDropReasonIsNotAddressedToUs(packetDropped)
attr title "packet drop: not addressed to us, count"
scalar Multihop.hostC.wlan[0].mac packetDropNotAddressedToUs:sum(packetBytes) 742761
attr interpolationmode none
attr source packetDropReasonIsNotAddressedToUs(packetDropped)
attr title "packet drop: not addressed to us, sum(packetBytes)"
scalar Multihop.hostC.wlan[0].mac packetDropQueueOverflow:count 0
attr interpolationmode none
attr source packetDropReasonIsQueueOverflow(packetDropped)
attr title "packet drop: queue overflow, count"
scalar Multihop.hostC.wlan[0].mac packetDropQueueOverflow:sum(packetBytes) 0
attr interpolationmode none
attr source packetDropReasonIsQueueOverflow(packetDropped)
attr title "packet drop: queue overflow, sum(packetBytes)"
scalar Multihop.hostC.wlan[0].mac packetDropRetryLimitReached:count 3
attr interpolationmode none
attr source packetDropReasonIsRetryLimitReached(packetDropped)
attr title "packet drop: retry limit reached, count"
scalar Multihop.hostC.wlan[0].mac packetDropRetryLimitReached:sum(packetBytes) 3147
attr interpolationmode none
attr source packetDropReasonIsRetryLimitReached(packetDropped)
attr title "packet drop: retry limit reached, sum(packetBytes)"
scalar Multihop.hostC.wlan[0].mac linkBroken:count 3
attr interpolationmode none
attr source linkBroken
attr title "link break, count"
statistic Multihop.hostC.wlan[0].radio minSnir:histogram
field count 2338
field mean 2793.9735814981
field stddev 1758.8372336808
field min 0.089986885778341
field max 4391.5383156971
field sum 6532310.2335427
field sqrsum 25480631383.546
attr source minimumSnir(packetSentToUpper)
attr title "Min SNIR, histogram"
bin	-inf	0
bin	0	426
bin	100	0
bin	200	0
bin	300	0
bin	400	0
bin	500	0
bin	600	201
bin	700	0
bin	800	0
bin	900	0
bin	1000	0
bin	1100	0
bin	1200	0
bin	1300	0
bin	1400	0
bin	1500	0
bin	1600	0
bin	1700	0
bin	1800	0
bin	1900	0
bin	2000	0
bin	2100	0
bin	2200	0
bin	2300	0
bin	2400	576
bin	2500	0
bin	2600	0
bin	2700	0
bin	2800	0
bin	2900	0
bin	3000	0
bin	3100	0
bin	3200	0
bin	3300	0
bin	3400	0
bin	3500	0
bin	3600	0
bin	3700	0
bin	3800	0
bin	3900	0
bin	4000	0
bin	4100	0
bin	4200	0
bin	4300	1135
bin	4400	0
bin	4500	0
bin	4600	0
bin	4700	0
bin	4800	0
bin	4900	0
bin	5000	0
bin	5100	0
bin	5200	0
bin	5300	0
bin	5400	0
statistic Multihop.hostC.wlan[0].radio packetErrorRate:histogram
field count 2338
field mean 0.11911733345107
field stddev 0.32271893391631
field min 0
field max 1
field sum 278.49632560861
field sqrsum 276.56647127241
attr source packetErrorRate(packetSentToUpper)
attr title "Packet error rate, histogram"
bin	-inf	0
bin	-0.5	0
bin	-0.48	0
bin	-0.46	0
bin	-0.44	0
bin	-0.42	0
bin	-0.4	0
bin	-0.38	0
bin	-0.36	0
bin	-0.34	0
bin	-0.32	0
bin	-0.3	0
bin	-0.28	0
bin	-0.26	0
bin	-0.24	0
bin	-0.22	0
bin	-0.2	0
bin	-0.18	0
bin	-0.16	0
bin	-0.14	0
bin	-0.12	0
bin	-0.1	0
bin	-0.08	0
bin	-0.06	0
bin	-0.04	0
bin	-0.02	0
bin	0	2044
bin	0.02	0
bin	0.04	0
bin	0.06	0
bin	0.08	0
bin	0.1	16
bin	0.12	0
bin	0.14	0
bin	0.16	0
bin	0.18	0
bin	0.2	0
bin	0.22	0
bin	0.24	0
bin	0.26	0
bin	0.28	0
bin	0.3	0
bin	0.32	0
bin	0.34	0
bin	0.36	0
bin	0.38	1
bin	0.4	0
bin	0.42	0
bin	0.44	0
bin	0.46	0
bin	0.48	1
bin	0.5	0
bin	0.52	0
bin	0.54	0
bin	0.56	0
bin	0.58	0
bin	0.6	0
bin	0.62	0
bin	0.64	0
bin	0.66	0
bin	0.68	0
bin	0.7	0
bin	0.72	0
bin	0.74	0
bin	0.76	0
bin	0.78	0
bin	0.8	0
bin	0.82	0
bin	0.84	0
bin	0.86	0
bin	0.88	0
bin	0.9	0
bin	0.92	0
bin	0.94	0
bin	0.96	0
bin	0.98	73
bin	1	203
bin	1.02	0
statistic Multihop.hostC.wlan[0].radio bitErrorRate:histogram
field count 2338
field mean 0.012589803340447
field stddev 0.035604168754805
field min 0
field max 0.17140843881294
field sum 29.434960209964
field sqrsum 3.3330943784454
attr source bitErrorRate(packetSentToUpper)
attr title "Bit error rate, histogram"
bin	-inf	0
bin	-0.5	0
bin	-0.48	0
bin	-0.46	0
bin	-0.44	0
bin	-0.42	0
bin	-0.4	0
bin	-0.38	0
bin	-0.36	0
bin	-0.34	0
bin	-0.32	0
bin	-0.3	0
bin	-0.28	0
bin	-0.26	0
bin	-0.24	0
bin	-0.22	0
bin	-0.2	0
bin	-0.18	0
bin	-0.16	0
bin	-0.14	0
bin	-0.12	0
bin	-0.1	0
bin	-0.08	0
bin	-0.06	0
bin	-0.04	0
bin	-0.02	0
bin	0	2065
bin	0.02	0
bin	0.04	49
bin	0.06	0
bin	0.08	0
bin	0.1	220
bin	0.12	0
bin	0.14	0
bin	0.16	4
bin	0.18	0
bin	0.2	0
bin	0.22	0
bin	0.24	0
bin	0.26	0
bin	0.28	0
bin	0.3	0
bin	0.32	0
bin	0.34	0
bin	0.36	0
bin	0.38	0
bin	0.4	0
bin	0.42	0
bin	0.44	0
bin	0.46	0
bin	0.48	0
bin	0.5	0
statistic Multihop.hostC.wlan[0].radio symbolErrorRate:histogram
field count 2338
field mean 0.023753988897127
field stddev 0.067035163732735
field min 0
field max 0.31343602472959
field sum 55.536826041482
field sqrsum 11.821028843059
attr source symbolErrorRate(packetSentToUpper)
attr title "Symbol error rate, histogram"
bin	-inf	0
bin	-0.5	0
bin	-0.48	0
bin	-0.46	0
bin	-0.44	0
bin	-0.42	0
bin	-0.4	0
bin	-0.38	0
bin	-0.36	0
bin	-0.34	0
bin	-0.32	0
bin	-0.3	0
bin	-0.28	0
bin	-0.26	0
bin	-0.24	0
bin	-0.22	0
bin	-0.2	0
bin	-0.18	0
bin	-0.16	0
bin	-0.14	0
bin	-0.12	0
bin	-0.1	0
bin	-0.08	0
bin	-0.06	0
bin	-0.04	0
bin	-0.02	0
bin	0	2065
bin	0.02	0
bin	0.04	0
bin	0.06	0
bin	0.08	0
bin	0.1	49
bin	0.12	0
bin	0.14	0
bin	0.16	0
bin	0.18	0
bin	0.2	0
bin	0.22	220
bin	0.24	0
bin	0.26	0
bin	0.28	0
bin	0.3	4
bin	0.32	0
bin	0.34	0
bin	0.36	0
bin	0.38	0
bin	0.4	0
bin	0.42	0
bin	0.44	0
bin	0.46	0
bin	0.48	0
bin	0.5	0
scalar Multihop.hostC.wlan[0].radio transmissionState:count 4866
attr interpolationmode sample-hold
attr source transmissionStateChanged
attr title "Radio transmission state, count"
scalar Multihop.hostC.wlan[0].radio receptionState:count 7278
attr interpolationmode sample-hold
attr source receptionStateChanged
attr title "Radio reception state, count"
scalar Multihop.hostC.wlan[0].radio radioMode:count 2436
attr interpolationmode sample-hold
attr source radioModeChanged
attr title "Radio mode, count"
scalar Multihop.hostC.ipv4.ip packetDropAddressResolutionFailed:count 0
attr interpolationmode none
attr source packetDropReasonIsAddressResolutionFailed(packetDropped)
attr title "packet drop: address resolution failed, count"
scalar Multihop.hostC.ipv4.ip packetDropAddressResolutionFailed:sum(packetBytes) 0
attr interpolationmode none
attr source packetDropReasonIsAddressResolutionFailed(packetDropped)
attr title "packet drop: address resolution failed, sum(packetBytes)"
scalar Multihop.hostC.ipv4.ip packetDropHopLimitReached:count 0
attr interpolationmode none
attr source packetDropReasonIsHopLimitReached(packetDropped)
attr title "packet drop: hop limit reached, count"
scalar Multihop.hostC.ipv4.ip packetDropHopLimitReached:sum(packetBytes) 0
attr interpolationmode none
attr source packetDropReasonIsHopLimitReached(packetDropped)
attr title "packet drop: hop limit reached, sum(packetBytes)"
scalar Multihop.hostC.ipv4.ip packetDropForwardingDisabled:count 0
attr interpolationmode none
attr source packetDropReasonIsForwardingDisabled(packetDropped)
attr title "packet drop: forwarding disabled, count"
scalar Multihop.hostC.ipv4.ip packetDropForwardingDisabled:sum(packetBytes) 0
attr interpolationmode none
attr source packetDropReasonIsForwardingDisabled(packetDropped)
attr title "packet drop: forwarding disabled, sum(packetBytes)"
scalar Multihop.hostC.ipv4.ip packetDropNoInterfaceFound:count 0
attr interpolationmode none
attr source packetDropReasonIsNoInterfaceFound(packetDropped)
attr title "packet drop: no interface found, count"
scalar Multihop.hostC.ipv4.ip packetDropNoInterfaceFound:sum(packetBytes) 0
attr interpolationmode none
attr source packetDropReasonIsNoInterfaceFound(packetDropped)
attr title "packet drop: no interface found, sum(packetBytes)"
scalar Multihop.hostC.ipv4.ip packetDropNoRouteFound:count 0
attr interpolationmode none
attr source packetDropReasonIsNoRouteFound(packetDropped)
attr title "packet drop: no route found, count"
scalar Multihop.hostC.ipv4.ip packetDropNoRouteFound:sum(packetBytes) 0
attr interpolationmode none
attr source packetDropReasonIsNoRouteFound(packetDropped)
attr title "packet drop: no route found, sum(packetBytes)"
scalar Multihop.hostC.ipv4.ip packetDropUndefined:count 0
attr interpolationmode none
attr source packetDropReasonIsUndefined(packetDropped)
attr title "packet drop: undefined, count"
scalar Multihop.hostC.ipv4.ip packetDropUndefined:sum(packetBytes) 0
attr interpolationmode none
attr source packetDropReasonIsUndefined(packetDropped)
attr title "packet drop: undefined, sum(packetBytes)"
scalar Multihop.hostC.udp packetReceived:count 22
attr interpolationmode none
attr source packetReceived
attr title "packets received, count"
scalar Multihop.hostC.udp packetReceived:sum(packetBytes) 704
attr interpolationmode none
attr source packetReceived
attr title "packets received, sum(packetBytes)"
scalar Multihop.hostC.udp packetSent:count 20
attr interpolationmode none
attr source packetSent
attr title "packets sent, count"
scalar Multihop.hostC.udp packetSent:sum(packetBytes) 636
attr interpolationmode none
attr source packetSent
attr title "packets sent, sum(packetBytes)"
scalar Multihop.hostC.udp passedUpPk:count 22
attr interpolationmode none
attr source packetSentToUpper
attr title "packets passed up, count"
scalar Multihop.hostC.udp droppedPkWrongPort:count 0
attr interpolationmode none
attr source packetDropReasonIsNoPortFound(packetDropped)
attr title "packets dropped (wrong port), count"
scalar Multihop.hostC.udp droppedPkBadChecksum:count 0
attr interpolationmode none
attr source packetDropReasonIsIncorrectlyReceived(packetDropped)
attr title "packets dropped (checksum error), count"
scalar Multihop.hostD.lo[0].lo rcvdPkFromHl:count 0
attr interpolationmode none
attr source packetReceivedFromUpper
attr title "packets received from higher layer, count"
scalar Multihop.hostD.lo[0].lo rcvdPkFromHl:sum(packetBytes) 0
attr interpolationmode none
attr source packetReceivedFromUpper
attr title "packets received from higher layer, sum(packetBytes)"
scalar Multihop.hostD.lo[0].lo passedUpPk:count 0
attr interpolationmode none
attr source packetSentToUpper
attr title "packets passed to higher layer, count"
scalar Multihop.hostD.lo[0].lo passedUpPk:sum(packetBytes) 0
attr interpolationmode none
attr source packetSentToUpper
attr title "packets passed to higher layer, sum(packetBytes)"
scalar Multihop.hostD.wlan[0].mac.queue packetPopped:count 239
attr interpolationmode none
attr title "packet popped, count"
scalar Multihop.hostD.wlan[0].mac.queue packetPopped:sum(packetBytes) 242903
attr interpolationmode none
attr title "packet popped, sum(packetBytes)"
statistic Multihop.hostD.wlan[0].mac.queue queueingTime:histogram
field count 239
field mean 5.0953822826622
field stddev 5.2699047231111
field min 0
field max 14.556934698573
field sum 1217.7963655563
field sqrsum 12814.849223125
attr interpolationmode none
attr source queueingTime(packetPopped)
attr title "queueing times, histogram"
attr unit s
bin	-inf	0
bin	0	89
bin	0.2	2
bin	0.4	0
bin	0.6	0
bin	0.8	0
bin	1	0
bin	1.2	0
bin	1.4	1
bin	1.6	11
bin	1.8	2
bin	2	0
bin	2.2	1
bin	2.4	7
bin	2.6	2
bin	2.8	0
bin	3	4
bin	3.2	5
bin	3.4	1
bin	3.6	11
bin	3.8	1
bin	4	0
bin	4.2	0
bin	4.4	0
bin	4.6	0
bin	4.8	0
bin	5	1
bin	5.2	0
bin	5.4	0
bin	5.6	3
bin	5.8	4
bin	6	0
bin	6.2	0
bin	6.4	0
bin	6.6	0
bin	6.8	4
bin	7	8
bin	7.2	0
bin	7.4	1
bin	7.6	0
bin	7.8	0
bin	8	0
bin	8.2	5
bin	8.4	3
bin	8.6	5
bin	8.8	5
bin	9	3
bin	9.2	2
bin	9.4	0
bin	9.6	0
bin	9.8	0
bin	10	1
bin	10.2	5
bin	10.4	5
bin	10.6	0
bin	10.8	0
bin	11	0
bin	11.2	0
bin	11.4	1
bin	11.6	1
bin	11.8	0
bin	12	1
bin	12.2	0
bin	12.4	0
bin	12.6	1
bin	12.8	9
bin	13	2
bin	13.2	8
bin	13.4	4
bin	13.6	6
bin	13.8	0
bin	14	3
bin	14.2	3
bin	14.4	8
bin	14.6	0
scalar Multihop.hostD.wlan[0].mac.queue queueLength:max 148
attr interpolationmode sample-hold
attr source "count(packetPushed) - count(packetPopped) - count(packetRemoved) - count(packetDropped)"
attr title "queue length, max"
scalar Multihop.hostD.wlan[0].mac.queue queueLength:timeavg 60.957721667352
attr interpolationmode sample-hold
attr source "count(packetPushed) - count(packetPopped) - count(packetRemoved) - count(packetDropped)"
attr title "queue length, timeavg"
scalar Multihop.hostD.wlan[0].mac.queue packetPushed:count 239
attr interpolationmode none
attr title "packet pushed, count"
scalar Multihop.hostD.wlan[0].mac.queue packetPushed:sum(packetBytes) 242903
attr interpolationmode none
attr title "packet pushed, sum(packetBytes)"
scalar Multihop.hostD.wlan[0].mac.queue packetDropQueueOverflow:count 0
attr interpolationmode none
attr source packetDropReasonIsQueueOverflow(packetDropped)
attr title "packet drops: queue overflow, count"
scalar Multihop.hostD.wlan[0].mac.queue packetDropQueueOverflow:sum(packetBytes) 0
attr interpolationmode none
attr source packetDropReasonIsQueueOverflow(packetDropped)
attr title "packet drops: queue overflow, sum(packetBytes)"
scalar Multihop.hostD.wlan[0].mac.queue packetRemoved:count 0
attr interpolationmode none
attr title "packets removed, count"
scalar Multihop.hostD.wlan[0].mac.queue packetRemoved:sum(packetBytes) 0
attr interpolationmode none
attr title "packets removed, sum(packetBytes)"
scalar Multihop.hostD.wlan[0].mac numRetry 208
scalar Multihop.hostD.wlan[0].mac numSentWithoutRetry 139
scalar Multihop.hostD.wlan[0].mac numGivenUp 11
scalar Multihop.hostD.wlan[0].mac numCollision 327
scalar Multihop.hostD.wlan[0].mac numSent 221
scalar Multihop.hostD.wlan[0].mac numReceived 232
scalar Multihop.hostD.wlan[0].mac numSentBroadcast 7
scalar Multihop.hostD.wlan[0].mac numReceivedBroadcast 14
scalar Multihop.hostD.wlan[0].mac packetDropIncorrectlyReceived:count 327
attr interpolationmode none
attr source packetDropReasonIsIncorrectlyReceived(packetDropped)
attr title "packet drop: incorrectly received, count"
scalar Multihop.hostD.wlan[0].mac packetDropIncorrectlyReceived:sum(packetBytes) 340095
attr interpolationmode none
attr source packetDropReasonIsIncorrectlyReceived(packetDropped)
attr title "packet drop: incorrectly received, sum(packetBytes)"
scalar Multihop.hostD.wlan[0].mac packetDropNotAddressedToUs:count 1121
attr interpolationmode none
attr source packetDropReasonIsNotAddressedToUs(packetDropped)
attr title "packet drop: not addressed to us, count"
scalar Multihop.hostD.wlan[0].mac packetDropNotAddressedToUs:sum(packetBytes) 1174949
attr interpolationmode none
attr source packetDropReasonIsNotAddressedToUs(packetDropped)
attr title "packet drop: not addressed to us, sum(packetBytes)"
scalar Multihop.hostD.wlan[0].mac packetDropQueueOverflow:count 0
attr interpolationmode none
attr source packetDropReasonIsQueueOverflow(packetDropped)
attr title "packet drop: queue overflow, count"
scalar Multihop.hostD.wlan[0].mac packetDropQueueOverflow:sum(packetBytes) 0
attr interpolationmode none
attr source packetDropReasonIsQueueOverflow(packetDropped)
attr title "packet drop: queue overflow, sum(packetBytes)"
scalar Multihop.hostD.wlan[0].mac packetDropRetryLimitReached:count 11
attr interpolationmode none
attr source packetDropReasonIsRetryLimitReached(packetDropped)
attr title "packet drop: retry limit reached, count"
scalar Multihop.hostD.wlan[0].mac packetDropRetryLimitReached:sum(packetBytes) 11539
attr interpolationmode none
attr source packetDropReasonIsRetryLimitReached(packetDropped)
attr title "packet drop: retry limit reached, sum(packetBytes)"
scalar Multihop.hostD.wlan[0].mac linkBroken:count 11
attr interpolationmode none
attr source linkBroken
attr title "link break, count"
statistic Multihop.hostD.wlan[0].radio minSnir:histogram
field count 2839
field mean 1254.8988030797
field stddev 965.54331271661
field min 0.18840404297698
field max 2470.2403025796
field sum 3562657.7019433
field sqrsum 7116568182.1721
attr source minimumSnir(packetSentToUpper)
attr title "Min SNIR, histogram"
bin	-inf	0
bin	0	513
bin	50	0
bin	100	0
bin	150	0
bin	200	0
bin	250	0
bin	300	0
bin	350	0
bin	400	0
bin	450	0
bin	500	0
bin	550	0
bin	600	226
bin	650	0
bin	700	0
bin	750	0
bin	800	1061
bin	850	0
bin	900	0
bin	950	0
bin	1000	0
bin	1050	0
bin	1100	0
bin	1150	0
bin	1200	0
bin	1250	0
bin	1300	0
bin	1350	0
bin	1400	0
bin	1450	0
bin	1500	0
bin	1550	0
bin	1600	0
bin	1650	0
bin	1700	0
bin	1750	0
bin	1800	0
bin	1850	0
bin	1900	0
bin	1950	0
bin	2000	0
bin	2050	0
bin	2100	0
bin	2150	0
bin	2200	0
bin	2250	0
bin	2300	0
bin	2350	0
bin	2400	0
bin	2450	1039
bin	2500	0
bin	2550	0
bin	2600	0
bin	2650	0
bin	2700	0
bin	2750	0
bin	2800	0
bin	2850	0
bin	2900	0
bin	2950	0
bin	3000	0
bin	3050	0
bin	3100	0
statistic Multihop.hostD.wlan[0].radio packetErrorRate:histogram
field count 2839
field mean 0.11922846417204
field stddev 0.29736495807884
field min 0
field max 1
field sum 338.48960978441
field sqrsum 291.31035242897
attr source packetErrorRate(packetSentToUpper)
attr title "Packet error rate, histogram"
bin	-inf	0
bin	0	2415
bin	0.02	0
bin	0.04	0
bin	0.06	0
bin	0.08	0
bin	0.1	0
bin	0.12	1
bin	0.14	0
bin	0.16	0
bin	0.18	0
bin	0.2	0
bin	0.22	0
bin	0.24	0
bin	0.26	0
bin	0.28	0
bin	0.3	0
bin	0.32	0
bin	0.34	0
bin	0.36	0
bin	0.38	3
bin	0.4	0
bin	0.42	0
bin	0.44	89
bin	0.46	0
bin	0.48	0
bin	0.5	0
bin	0.52	0
bin	0.54	0
bin	0.56	0
bin	0.58	0
bin	0.6	0
bin	0.62	0
bin	0.64	0
bin	0.66	0
bin	0.68	0
bin	0.7	0
bin	0.72	122
bin	0.74	0
bin	0.76	0
bin	0.78	0
bin	0.8	0
bin	0.82	0
bin	0.84	0
bin	0.86	0
bin	0.88	0
bin	0.9	0
bin	0.92	0
bin	0.94	0
bin	0.96	0
bin	0.98	127
bin	1	82
bin	1.02	0
bin	1.04	0
bin	1.06	0
bin	1.08	0
bin	1.1	0
bin	1.12	0
bin	1.14	0
bin	1.16	0
bin	1.18	0
bin	1.2	0
bin	1.22	0
bin	1.24	0
bin	1.26	0
statistic Multihop.hostD.wlan[0].radio bitErrorRate:histogram
field count 2839
field mean 0.0020085090744936
field stddev 0.0099368846043993
field min 0
field max 0.084937818133958
field sum 5.7021572624873
field sqrsum 0.29168171007548
attr source bitErrorRate(packetSentToUpper)
attr title "Bit error rate, histogram"
bin	-inf	0
bin	0	2541
bin	0.00095	0
bin	0.0019	208
bin	0.00285	0
bin	0.0038	0
bin	0.00475	0
bin	0.0057	0
bin	0.00665	0
bin	0.0076	0
bin	0.00855	0
bin	0.0095	0
bin	0.01045	0
bin	0.0114	0
bin	0.01235	0
bin	0.0133	0
bin	0.01425	0
bin	0.0152	0
bin	0.01615	0
bin	0.0171	0
bin	0.01805	0
bin	0.019	0
bin	0.01995	0
bin	0.0209	0
bin	0.02185	0
bin	0.0228	0
bin	0.02375	0
bin	0.0247	0
bin	0.02565	0
bin	0.0266	0
bin	0.02755	0
bin	0.0285	0
bin	0.02945	0
bin	0.0304	0
bin	0.03135	0
bin	0.0323	0
bin	0.03325	0
bin	0.0342	0
bin	0.03515	3
bin	0.0361	0
bin	0.03705	0
bin	0.038	0
bin	0.03895	0
bin	0.0399	0
bin	0.04085	0
bin	0.0418	0
bin	0.04275	0
bin	0.0437	0
bin	0.04465	0
bin	0.0456	0
bin	0.04655	0
bin	0.0475	0
bin	0.04845	0
bin	0.0494	0
bin	0.05035	0
bin	0.0513	0
bin	0.05225	0
bin	0.0532	0
bin	0.05415	0
bin	0.0551	0
bin	0.05605	86
bin	0.057	0
bin	0.05795	0
bin	0.0589	0
bin	0.05985	0
bin	0.0608	0
bin	0.06175	0
bin	0.0627	0
bin	0.06365	0
bin	0.0646	0
bin	0.06555	0
bin	0.0665	0
bin	0.06745	0
bin	0.0684	0
bin	0.06935	0
bin	0.0703	0
bin	0.07125	0
bin	0.0722	0
bin	0.07315	0
bin	0.0741	0
bin	0.07505	0
bin	0.076	0
bin	0.07695	0
bin	0.0779	0
bin	0.07885	0
bin	0.0798	0
bin	0.08075	0
bin	0.0817	0
bin	0.08265	0
bin	0.0836	0
bin	0.08455	1
bin	0.0855	0
statistic Multihop.hostD.wlan[0].radio symbolErrorRate:histogram
field count 2839
field mean 0.003914277145086
field stddev 0.019304471518066
field min 0
field max 0.16266120331856
field sum 11.112632814899
field sqrsum 1.1011144418887
attr source symbolErrorRate(packetSentToUpper)
attr title "Symbol error rate, histogram"
bin	-inf	0
bin	0	2541
bin	0.0019	0
bin	0.0038	208
bin	0.0057	0
bin	0.0076	0
bin	0.0095	0
bin	0.0114	0
bin	0.0133	0
bin	0.0152	0
bin	0.0171	0
bin	0.019	0
bin	0.0209	0
bin	0.0228	0
bin	0.0247	0
bin	0.0266	0
bin	0.0285	0
bin	0.0304	0
bin	0.0323	0
bin	0.0342	0
bin	0.0361	0
bin	0.038	0
bin	0.0399	0
bin	0.0418	0
bin	0.0437	0
bin	0.0456	0
bin	0.0475	0
bin	0.0494	0
bin	0.0513	0
bin	0.0532	0
bin	0.0551	0
bin	0.057	0
bin	0.0589	0
bin	0.0608	0
bin	0.0627	0
bin	0.0646	0
bin	0.0665	0
bin	0.0684	3
bin	0.0703	0
bin	0.0722	0
bin	0.0741	0
bin	0.076	0
bin	0.0779	0
bin	0.0798	0
bin	0.0817	0
bin	0.0836	0
bin	0.0855	0
bin	0.0874	0
bin	0.0893	0
bin	0.0912	0
bin	0.0931	0
bin	0.095	0
bin	0.0969	0
bin	0.0988	0
bin	0.1007	0
bin	0.1026	0
bin	0.1045	0
bin	0.1064	0
bin	0.1083	0
bin	0.1102	86
bin	0.1121	0
bin	0.114	0
bin	0.1159	0
bin	0.1178	0
bin	0.1197	0
bin	0.1216	0
bin	0.1235	0
bin	0.1254	0
bin	0.1273	0
bin	0.1292	0
bin	0.1311	0
bin	0.133	0
bin	0.1349	0
bin	0.1368	0
bin	0.1387	0
bin	0.1406	0
bin	0.1425	0
bin	0.1444	0
bin	0.1463	0
bin	0.1482	0
bin	0.1501	0
bin	0.152	0
bin	0.1539	0
bin	0.1558	0
bin	0.1577	0
bin	0.1596	0
bin	0.1615	1
bin	0.1634	0
scalar Multihop.hostD.wlan[0].radio transmissionState:count 2716
attr interpolationmode sample-hold
attr source transmissionStateChanged
attr title "Radio transmission state, count"
scalar Multihop.hostD.wlan[0].radio receptionState:count 7252
attr interpolationmode sample-hold
attr source receptionStateChanged
attr title "Radio reception state, count"
scalar Multihop.hostD.wlan[0].radio radioMode:count 1361
attr interpolationmode sample-hold
attr source radioModeChanged
attr title "Radio mode, count"
scalar Multihop.hostD.ipv4.ip packetDropAddressResolutionFailed:count 0
attr interpolationmode none
attr source packetDropReasonIsAddressResolutionFailed(packetDropped)
attr title "packet drop: address resolution failed, count"
scalar Multihop.hostD.ipv4.ip packetDropAddressResolutionFailed:sum(packetBytes) 0
attr interpolationmode none
attr source packetDropReasonIsAddressResolutionFailed(packetDropped)
attr title "packet drop: address resolution failed, sum(packetBytes)"
scalar Multihop.hostD.ipv4.ip packetDropHopLimitReached:count 0
attr interpolationmode none
attr source packetDropReasonIsHopLimitReached(packetDropped)
attr title "packet drop: hop limit reached, count"
scalar Multihop.hostD.ipv4.ip packetDropHopLimitReached:sum(packetBytes) 0
attr interpolationmode none
attr source packetDropReasonIsHopLimitReached(packetDropped)
attr title "packet drop: hop limit reached, sum(packetBytes)"
scalar Multihop.hostD.ipv4.ip packetDropForwardingDisabled:count 0
attr interpolationmode none
attr source packetDropReasonIsForwardingDisabled(packetDropped)
attr title "packet drop: forwarding disabled, count"
scalar Multihop.hostD.ipv4.ip packetDropForwardingDisabled:sum(packetBytes) 0
attr interpolationmode none
attr source packetDropReasonIsForwardingDisabled(packetDropped)
attr title "packet drop: forwarding disabled, sum(packetBytes)"
scalar Multihop.hostD.ipv4.ip packetDropNoInterfaceFound:count 0
attr interpolationmode none
attr source packetDropReasonIsNoInterfaceFound(packetDropped)
attr title "packet drop: no interface found, count"
scalar Multihop.hostD.ipv4.ip packetDropNoInterfaceFound:sum(packetBytes) 0
attr interpolationmode none
attr source packetDropReasonIsNoInterfaceFound(packetDropped)
attr title "packet drop: no interface found, sum(packetBytes)"
scalar Multihop.hostD.ipv4.ip packetDropNoRouteFound:count 0
attr interpolationmode none
attr source packetDropReasonIsNoRouteFound(packetDropped)
attr title "packet drop: no route found, count"
scalar Multihop.hostD.ipv4.ip packetDropNoRouteFound:sum(packetBytes) 0
attr interpolationmode none
attr source packetDropReasonIsNoRouteFound(packetDropped)
attr title "packet drop: no route found, sum(packetBytes)"
scalar Multihop.hostD.ipv4.ip packetDropUndefined:count 0
attr interpolationmode none
attr source packetDropReasonIsUndefined(packetDropped)
attr title "packet drop: undefined, count"
scalar Multihop.hostD.ipv4.ip packetDropUndefined:sum(packetBytes) 0
attr interpolationmode none
attr source packetDropReasonIsUndefined(packetDropped)
attr title "packet drop: undefined, sum(packetBytes)"
scalar Multihop.hostD.udp packetReceived:count 15
attr interpolationmode none
attr source packetReceived
attr title "packets received, count"
scalar Multihop.hostD.udp packetReceived:sum(packetBytes) 480
attr interpolationmode none
attr source packetReceived
attr title "packets received, sum(packetBytes)"
scalar Multihop.hostD.udp packetSent:count 8
attr interpolationmode none
attr source packetSent
attr title "packets sent, count"
scalar Multihop.hostD.udp packetSent:sum(packetBytes) 256
attr interpolationmode none
attr source packetSent
attr title "packets sent, sum(packetBytes)"
scalar Multihop.hostD.udp passedUpPk:count 15
attr interpolationmode none
attr source packetSentToUpper
attr title "packets passed up, count"
scalar Multihop.hostD.udp droppedPkWrongPort:count 0
attr interpolationmode none
attr source packetDropReasonIsNoPortFound(packetDropped)
attr title "packets dropped (wrong port), count"
scalar Multihop.hostD.udp droppedPkBadChecksum:count 0
attr interpolationmode none
attr source packetDropReasonIsIncorrectlyReceived(packetDropped)
attr title "packets dropped (checksum error), count"
scalar Multihop.hostE.lo[0].lo rcvdPkFromHl:count 0
attr interpolationmode none
attr source packetReceivedFromUpper
attr title "packets received from higher layer, count"
scalar Multihop.hostE.lo[0].lo rcvdPkFromHl:sum(packetBytes) 0
attr interpolationmode none
attr source packetReceivedFromUpper
attr title "packets received from higher layer, sum(packetBytes)"
scalar Multihop.hostE.lo[0].lo passedUpPk:count 0
attr interpolationmode none
attr source packetSentToUpper
attr title "packets passed to higher layer, count"
scalar Multihop.hostE.lo[0].lo passedUpPk:sum(packetBytes) 0
attr interpolationmode none
attr source packetSentToUpper
attr title "packets passed to higher layer, sum(packetBytes)"
scalar Multihop.hostE.wlan[0].mac.queue packetPopped:count 8
attr interpolationmode none
attr title "packet popped, count"
scalar Multihop.hostE.wlan[0].mac.queue packetPopped:sum(packetBytes) 584
attr interpolationmode none
attr title "packet popped, sum(packetBytes)"
statistic Multihop.hostE.wlan[0].mac.queue queueingTime:histogram
field count 8
field mean 0.000875240182375
field stddev 0.001996720950842
field min 0
field max 0.00576853468
field sum 0.007001921459
field sqrsum 3.403662490347e-05
attr interpolationmode none
attr source queueingTime(packetPopped)
attr title "queueing times, histogram"
attr unit s
bin	-inf	0
bin	0	5
bin	0.0001	0
bin	0.0002	0
bin	0.0003	0
bin	0.0004	0
bin	0.0005	0
bin	0.0006	2
bin	0.0007	0
bin	0.0008	0
bin	0.0009	0
bin	0.001	0
bin	0.0011	0
bin	0.0012	0
bin	0.0013	0
bin	0.0014	0
bin	0.0015	0
bin	0.0016	0
bin	0.0017	0
bin	0.0018	0
bin	0.0019	0
bin	0.002	0
bin	0.0021	0
bin	0.0022	0
bin	0.0023	0
bin	0.0024	0
bin	0.0025	0
bin	0.0026	0
bin	0.0027	0
bin	0.0028	0
bin	0.0029	0
bin	0.003	0
bin	0.0031	0
bin	0.0032	0
bin	0.0033	0
bin	0.0034	0
bin	0.0035	0
bin	0.0036	0
bin	0.0037	0
bin	0.0038	0
bin	0.0039	0
bin	0.004	0
bin	0.0041	0
bin	0.0042	0
bin	0.0043	0
bin	0.0044	0
bin	0.0045	0
bin	0.0046	0
bin	0.0047	0
bin	0.0048	0
bin	0.0049	0
bin	0.005	0
bin	0.0051	0
bin	0.0052	0
bin	0.0053	0
bin	0.0054	0
bin	0.0055	0
bin	0.0056	0
bin	0.0057	1
bin	0.0058	0
bin	0.0059	0
bin	0.006	0
bin	0.0061	0
bin	0.0062	0
bin	0.0063	0
bin	0.0064	0
bin	0.0065	0
bin	0.0066	0
bin	0.0067	0
bin	0.0068	0
bin	0.0069	0
bin	0.007	0
bin	0.0071	0
bin	0.0072	0
bin	0.0073	0
scalar Multihop.hostE.wlan[0].mac.queue queueLength:max 1
attr interpolationmode sample-hold
attr source "count(packetPushed) - count(packetPopped) - count(packetRemoved) - count(packetDropped)"
attr title "queue length, max"
scalar Multihop.hostE.wlan[0].mac.queue queueLength:timeavg 0.00035636833771599
attr interpolationmode sample-hold
attr source "count(packetPushed) - count(packetPopped) - count(packetRemoved) - count(packetDropped)"
attr title "queue length, timeavg"
scalar Multihop.hostE.wlan[0].mac.queue packetPushed:count 8
attr interpolationmode none
attr title "packet pushed, count"
scalar Multihop.hostE.wlan[0].mac.queue packetPushed:sum(packetBytes) 584
attr interpolationmode none
attr title "packet pushed, sum(packetBytes)"
scalar Multihop.hostE.wlan[0].mac.queue packetDropQueueOverflow:count 0
attr interpolationmode none
attr source packetDropReasonIsQueueOverflow(packetDropped)
attr title "packet drops: queue overflow, count"
scalar Multihop.hostE.wlan[0].mac.queue packetDropQueueOverflow:sum(packetBytes) 0
attr interpolationmode none
attr source packetDropReasonIsQueueOverflow(packetDropped)
attr title "packet drops: queue overflow, sum(packetBytes)"
scalar Multihop.hostE.wlan[0].mac.queue packetRemoved:count 0
attr interpolationmode none
attr title "packets removed, count"
scalar Multihop.hostE.wlan[0].mac.queue packetRemoved:sum(packetBytes) 0
attr interpolationmode none
attr title "packets removed, sum(packetBytes)"
scalar Multihop.hostE.wlan[0].mac numRetry 0
scalar Multihop.hostE.wlan[0].mac numSentWithoutRetry 0
scalar Multihop.hostE.wlan[0].mac numGivenUp 0
scalar Multihop.hostE.wlan[0].mac numCollision 90
scalar Multihop.hostE.wlan[0].mac numSent 0
scalar Multihop.hostE.wlan[0].mac numReceived 0
scalar Multihop.hostE.wlan[0].mac numSentBroadcast 8
scalar Multihop.hostE.wlan[0].mac numReceivedBroadcast 14
scalar Multihop.hostE.wlan[0].mac packetDropIncorrectlyReceived:count 90
attr interpolationmode none
attr source packetDropReasonIsIncorrectlyReceived(packetDropped)
attr title "packet drop: incorrectly received, count"
scalar Multihop.hostE.wlan[0].mac packetDropIncorrectlyReceived:sum(packetBytes) 89522
attr interpolationmode none
attr source packetDropReasonIsIncorrectlyReceived(packetDropped)
attr title "packet drop: incorrectly received, sum(packetBytes)"
scalar Multihop.hostE.wlan[0].mac packetDropNotAddressedToUs:count 552
attr interpolationmode none
attr source packetDropReasonIsNotAddressedToUs(packetDropped)
attr title "packet drop: not addressed to us, count"
scalar Multihop.hostE.wlan[0].mac packetDropNotAddressedToUs:sum(packetBytes) 569248
attr interpolationmode none
attr source packetDropReasonIsNotAddressedToUs(packetDropped)
attr title "packet drop: not addressed to us, sum(packetBytes)"
scalar Multihop.hostE.wlan[0].mac packetDropQueueOverflow:count 0
attr interpolationmode none
attr source packetDropReasonIsQueueOverflow(packetDropped)
attr title "packet drop: queue overflow, count"
scalar Multihop.hostE.wlan[0].mac packetDropQueueOverflow:sum(packetBytes) 0
attr interpolationmode none
attr source packetDropReasonIsQueueOverflow(packetDropped)
attr title "packet drop: queue overflow, sum(packetBytes)"
scalar Multihop.hostE.wlan[0].mac packetDropRetryLimitReached:count 0
attr interpolationmode none
attr source packetDropReasonIsRetryLimitReached(packetDropped)
attr title "packet drop: retry limit reached, count"
scalar Multihop.hostE.wlan[0].mac packetDropRetryLimitReached:sum(packetBytes) 0
attr interpolationmode none
attr source packetDropReasonIsRetryLimitReached(packetDropped)
attr title "packet drop: retry limit reached, sum(packetBytes)"
scalar Multihop.hostE.wlan[0].mac linkBroken:count 0
attr interpolationmode none
attr source linkBroken
attr title "link break, count"
statistic Multihop.hostE.wlan[0].radio minSnir:histogram
field count 1730
field mean 2341.7826935327
field stddev 548.51190568215
field min 0.99959534489667
field max 2470.2403025796
field sum 4051284.0598115
field sqrsum 10007423020.009
attr source minimumSnir(packetSentToUpper)
attr title "Min SNIR, histogram"
bin	-inf	0
bin	0	90
bin	50	0
bin	100	0
bin	150	0
bin	200	0
bin	250	0
bin	300	0
bin	350	0
bin	400	0
bin	450	0
bin	500	0
bin	550	0
bin	600	0
bin	650	0
bin	700	0
bin	750	0
bin	800	0
bin	850	0
bin	900	0
bin	950	0
bin	1000	0
bin	1050	0
bin	1100	0
bin	1150	0
bin	1200	0
bin	1250	0
bin	1300	0
bin	1350	0
bin	1400	0
bin	1450	0
bin	1500	0
bin	1550	0
bin	1600	0
bin	1650	0
bin	1700	0
bin	1750	0
bin	1800	0
bin	1850	0
bin	1900	0
bin	1950	0
bin	2000	0
bin	2050	0
bin	2100	0
bin	2150	0
bin	2200	0
bin	2250	0
bin	2300	0
bin	2350	0
bin	2400	0
bin	2450	1640
bin	2500	0
bin	2550	0
bin	2600	0
bin	2650	0
bin	2700	0
bin	2750	0
bin	2800	0
bin	2850	0
bin	2900	0
bin	2950	0
bin	3000	0
bin	3050	0
bin	3100	0
statistic Multihop.hostE.wlan[0].radio packetErrorRate:histogram
field count 1730
field mean 0.050202813605523
field stddev 0.21669390253914
field min 0
field max 0.99868731811785
field sum 86.850867537555
field sqrsum 85.547509664986
attr source packetErrorRate(packetSentToUpper)
attr title "Packet error rate, histogram"
bin	-inf	0
bin	0	1640
bin	0.02	0
bin	0.04	0
bin	0.06	0
bin	0.08	0
bin	0.1	0
bin	0.12	0
bin	0.14	0
bin	0.16	0
bin	0.18	0
bin	0.2	0
bin	0.22	0
bin	0.24	0
bin	0.26	0
bin	0.28	0
bin	0.3	0
bin	0.32	0
bin	0.34	0
bin	0.36	0
bin	0.38	5
bin	0.4	0
bin	0.42	0
bin	0.44	0
bin	0.46	0
bin	0.48	0
bin	0.5	0
bin	0.52	0
bin	0.54	0
bin	0.56	0
bin	0.58	0
bin	0.6	0
bin	0.62	0
bin	0.64	0
bin	0.66	0
bin	0.68	0
bin	0.7	0
bin	0.72	0
bin	0.74	0
bin	0.76	0
bin	0.78	0
bin	0.8	0
bin	0.82	0
bin	0.84	0
bin	0.86	0
bin	0.88	0
bin	0.9	0
bin	0.92	0
bin	0.94	0
bin	0.96	0
bin	0.98	85
bin	1	0
bin	1.02	0
bin	1.04	0
bin	1.06	0
bin	1.08	0
bin	1.1	0
bin	1.12	0
bin	1.14	0
bin	1.16	0
bin	1.18	0
bin	1.2	0
bin	1.22	0
bin	1.24	0
bin	1.26	0
statistic Multihop.hostE.wlan[0].radio bitErrorRate:histogram
field count 1730
field mean 4.0808127884535e-05
field stddev 0.00017425004372521
field min 0
field max 0.00078442290266939
field sum 0.070598061240245
field sqrsum 5.5378736120904e-05
attr source bitErrorRate(packetSentToUpper)
attr title "Bit error rate, histogram"
bin	-inf	0
bin	0	1640
bin	2e-05	0
bin	4e-05	0
bin	6e-05	0
bin	8e-05	0
bin	0.0001	0
bin	0.00012	0
bin	0.00014	0
bin	0.00016	0
bin	0.00018	0
bin	0.0002	0
bin	0.00022	0
bin	0.00024	0
bin	0.00026	0
bin	0.00028	0
bin	0.0003	0
bin	0.00032	0
bin	0.00034	0
bin	0.00036	0
bin	0.00038	0
bin	0.0004	0
bin	0.00042	0
bin	0.00044	0
bin	0.00046	0
bin	0.00048	0
bin	0.0005	0
bin	0.00052	0
bin	0.00054	0
bin	0.00056	0
bin	0.00058	0
bin	0.0006	0
bin	0.00062	0
bin	0.00064	0
bin	0.00066	0
bin	0.00068	0
bin	0.0007	0
bin	0.00072	0
bin	0.00074	0
bin	0.00076	0
bin	0.00078	90
bin	0.0008	0
bin	0.00082	0
bin	0.00084	0
bin	0.00086	0
bin	0.00088	0
bin	0.0009	0
bin	0.00092	0
bin	0.00094	0
bin	0.00096	0
bin	0.00098	0
bin	0.001	0
statistic Multihop.hostE.wlan[0].radio symbolErrorRate:histogram
field count 1730
field mean 8.1584244938938e-05
field stddev 0.00034836340172531
field min 0
field max 0.0015682304860485
field sum 0.14114074374436
field sqrsum 0.00022134121716347
attr source symbolErrorRate(packetSentToUpper)
attr title "Symbol error rate, histogram"
bin	-inf	0
bin	0	1640
bin	2e-05	0
bin	4e-05	0
bin	6e-05	0
bin	8e-05	0
bin	0.0001	0
bin	0.00012	0
bin	0.00014	0
bin	0.00016	0
bin	0.00018	0
bin	0.0002	0
bin	0.00022	0
bin	0.00024	0
bin	0.00026	0
bin	0.00028	0
bin	0.0003	0
bin	0.00032	0
bin	0.00034	0
bin	0.00036	0
bin	0.00038	0
bin	0.0004	0
bin	0.00042	0
bin	0.00044	0
bin	0.00046	0
bin	0.00048	0
bin	0.0005	0
bin	0.00052	0
bin	0.00054	0
bin	0.00056	0
bin	0.00058	0
bin	0.0006	0
bin	0.00062	0
bin	0.00064	0
bin	0.00066	0
bin	0.00068	0
bin	0.0007	0
bin	0.00072	0
bin	0.00074	0
bin	0.00076	0
bin	0.00078	0
bin	0.0008	0
bin	0.00082	0
bin	0.00084	0
bin	0.00086	0
bin	0.00088	0
bin	0.0009	0
bin	0.00092	0
bin	0.00094	0
bin	0.00096	0
bin	0.00098	0
bin	0.001	0
bin	0.00102	0
bin	0.00104	0
bin	0.00106	0
bin	0.00108	0
bin	0.0011	0
bin	0.00112	0
bin	0.00114	0
bin	0.00116	0
bin	0.00118	0
bin	0.0012	0
bin	0.00122	0
bin	0.00124	0
bin	0.00126	0
bin	0.00128	0
bin	0.0013	0
bin	0.00132	0
bin	0.00134	0
bin	0.00136	0
bin	0.00138	0
bin	0.0014	0
bin	0.00142	0
bin	0.00144	0
bin	0.00146	0
bin	0.00148	0
bin	0.0015	0
bin	0.00152	0
bin	0.00154	0
bin	0.00156	90
bin	0.00158	0
bin	0.0016	0
bin	0.00162	0
bin	0.00164	0
bin	0.00166	0
bin	0.00168	0
bin	0.0017	0
bin	0.00172	0
bin	0.00174	0
bin	0.00176	0
bin	0.00178	0
bin	0.0018	0
bin	0.00182	0
bin	0.00184	0
bin	0.00186	0
bin	0.00188	0
bin	0.0019	0
bin	0.00192	0
bin	0.00194	0
bin	0.00196	0
bin	0.00198	0
scalar Multihop.hostE.wlan[0].radio transmissionState:count 32
attr interpolationmode sample-hold
attr source transmissionStateChanged
attr title "Radio transmission state, count"
scalar Multihop.hostE.wlan[0].radio receptionState:count 3506
attr interpolationmode sample-hold
attr source receptionStateChanged
attr title "Radio reception state, count"
scalar Multihop.hostE.wlan[0].radio radioMode:count 19
attr interpolationmode sample-hold
attr source radioModeChanged
attr title "Radio mode, count"
scalar Multihop.hostE.ipv4.ip packetDropAddressResolutionFailed:count 0
attr interpolationmode none
attr source packetDropReasonIsAddressResolutionFailed(packetDropped)
attr title "packet drop: address resolution failed, count"
scalar Multihop.hostE.ipv4.ip packetDropAddressResolutionFailed:sum(packetBytes) 0
attr interpolationmode none
attr source packetDropReasonIsAddressResolutionFailed(packetDropped)
attr title "packet drop: address resolution failed, sum(packetBytes)"
scalar Multihop.hostE.ipv4.ip packetDropHopLimitReached:count 0
attr interpolationmode none
attr source packetDropReasonIsHopLimitReached(packetDropped)
attr title "packet drop: hop limit reached, count"
scalar Multihop.hostE.ipv4.ip packetDropHopLimitReached:sum(packetBytes) 0
attr interpolationmode none
attr source packetDropReasonIsHopLimitReached(packetDropped)
attr title "packet drop: hop limit reached, sum(packetBytes)"
scalar Multihop.hostE.ipv4.ip packetDropForwardingDisabled:count 0
attr interpolationmode none
attr source packetDropReasonIsForwardingDisabled(packetDropped)
attr title "packet drop: forwarding disabled, count"
scalar Multihop.hostE.ipv4.ip packetDropForwardingDisabled:sum(packetBytes) 0
attr interpolationmode none
attr source packetDropReasonIsForwardingDisabled(packetDropped)
attr title "packet drop: forwarding disabled, sum(packetBytes)"
scalar Multihop.hostE.ipv4.ip packetDropNoInterfaceFound:count 0
attr interpolationmode none
attr source packetDropReasonIsNoInterfaceFound(packetDropped)
attr title "packet drop: no interface found, count"
scalar Multihop.hostE.ipv4.ip packetDropNoInterfaceFound:sum(packetBytes) 0
attr interpolationmode none
attr source packetDropReasonIsNoInterfaceFound(packetDropped)
attr title "packet drop: no interface found, sum(packetBytes)"
scalar Multihop.hostE.ipv4.ip packetDropNoRouteFound:count 0
attr interpolationmode none
attr source packetDropReasonIsNoRouteFound(packetDropped)
attr title "packet drop: no route found, count"
scalar Multihop.hostE.ipv4.ip packetDropNoRouteFound:sum(packetBytes) 0
attr interpolationmode none
attr source packetDropReasonIsNoRouteFound(packetDropped)
attr title "packet drop: no route found, sum(packetBytes)"
scalar Multihop.hostE.ipv4.ip packetDropUndefined:count 0
attr interpolationmode none
attr source packetDropReasonIsUndefined(packetDropped)
attr title "packet drop: undefined, count"
scalar Multihop.hostE.ipv4.ip packetDropUndefined:sum(packetBytes) 0
attr interpolationmode none
attr source packetDropReasonIsUndefined(packetDropped)
attr title "packet drop: undefined, sum(packetBytes)"
scalar Multihop.hostE.udp packetReceived:count 14
attr interpolationmode none
attr source packetReceived
attr title "packets received, count"
scalar Multihop.hostE.udp packetReceived:sum(packetBytes) 452
attr interpolationmode none
attr source packetReceived
attr title "packets received, sum(packetBytes)"
scalar Multihop.hostE.udp packetSent:count 8
attr interpolationmode none
attr source packetSent
attr title "packets sent, count"
scalar Multihop.hostE.udp packetSent:sum(packetBytes) 256
attr interpolationmode none
attr source packetSent
attr title "packets sent, sum(packetBytes)"
scalar Multihop.hostE.udp passedUpPk:count 14
attr interpolationmode none
attr source packetSentToUpper
attr title "packets passed up, count"
scalar Multihop.hostE.udp droppedPkWrongPort:count 0
attr interpolationmode none
attr source packetDropReasonIsNoPortFound(packetDropped)
attr title "packets dropped (wrong port), count"
scalar Multihop.hostE.udp droppedPkBadChecksum:count 0
attr interpolationmode none
attr source packetDropReasonIsIncorrectlyReceived(packetDropped)
attr title "packets dropped (checksum error), count"
scalar Multihop.hostF.lo[0].lo rcvdPkFromHl:count 0
attr interpolationmode none
attr source packetReceivedFromUpper
attr title "packets received from higher layer, count"
scalar Multihop.hostF.lo[0].lo rcvdPkFromHl:sum(packetBytes) 0
attr interpolationmode none
attr source packetReceivedFromUpper
attr title "packets received from higher layer, sum(packetBytes)"
scalar Multihop.hostF.lo[0].lo passedUpPk:count 0
attr interpolationmode none
attr source packetSentToUpper
attr title "packets passed to higher layer, count"
scalar Multihop.hostF.lo[0].lo passedUpPk:sum(packetBytes) 0
attr interpolationmode none
attr source packetSentToUpper
attr title "packets passed to higher layer, sum(packetBytes)"
scalar Multihop.hostF.wlan[0].mac.queue packetPopped:count 6
attr interpolationmode none
attr title "packet popped, count"
scalar Multihop.hostF.wlan[0].mac.queue packetPopped:sum(packetBytes) 438
attr interpolationmode none
[...]
field sum 0.62383238042135
field sqrsum 0.031767926108796
attr source bitErrorRate(packetSentToUpper)
attr title "Bit error rate, histogram"
bin	-inf	0
bin	-0.5	0
bin	-0.48	0
bin	-0.46	0
bin	-0.44	0
bin	-0.42	0
bin	-0.4	0
bin	-0.38	0
bin	-0.36	0
bin	-0.34	0
bin	-0.32	0
bin	-0.3	0
bin	-0.28	0
bin	-0.26	0
bin	-0.24	0
bin	-0.22	0
bin	-0.2	0
bin	-0.18	0
bin	-0.16	0
bin	-0.14	0
bin	-0.12	0
bin	-0.1	0
bin	-0.08	0
bin	-0.06	0
bin	-0.04	0
bin	-0.02	0
bin	0	2180
bin	0.02	2
bin	0.04	9
bin	0.06	0
bin	0.08	0
bin	0.1	0
bin	0.12	0
bin	0.14	0
bin	0.16	0
bin	0.18	0
bin	0.2	0
bin	0.22	0
bin	0.24	0
bin	0.26	0
bin	0.28	0
bin	0.3	0
bin	0.32	0
bin	0.34	0
bin	0.36	0
bin	0.38	0
bin	0.4	0
bin	0.42	0
bin	0.44	0
bin	0.46	0
bin	0.48	0
bin	0.5	0
statistic Multihop.hostG.wlan[0].radio symbolErrorRate:histogram
field count 2191
field mean 0.00055495063201001
field stddev 0.007386467865298
field min 0
field max 0.11067504363749
field sum 1.2158968347339
field sqrsum 0.12016096019682
attr source symbolErrorRate(packetSentToUpper)
attr title "Symbol error rate, histogram"
bin	-inf	0
bin	-0.5	0
bin	-0.48	0
bin	-0.46	0
bin	-0.44	0
bin	-0.42	0
bin	-0.4	0
bin	-0.38	0
bin	-0.36	0
bin	-0.34	0
bin	-0.32	0
bin	-0.3	0
bin	-0.28	0
bin	-0.26	0
bin	-0.24	0
bin	-0.22	0
bin	-0.2	0
bin	-0.18	0
bin	-0.16	0
bin	-0.14	0
bin	-0.12	0
bin	-0.1	0
bin	-0.08	0
bin	-0.06	0
bin	-0.04	0
bin	-0.02	0
bin	0	2180
bin	0.02	0
bin	0.04	0
bin	0.06	2
bin	0.08	0
bin	0.1	9
bin	0.12	0
bin	0.14	0
bin	0.16	0
bin	0.18	0
bin	0.2	0
bin	0.22	0
bin	0.24	0
bin	0.26	0
bin	0.28	0
bin	0.3	0
bin	0.32	0
bin	0.34	0
bin	0.36	0
bin	0.38	0
bin	0.4	0
bin	0.42	0
bin	0.44	0
bin	0.46	0
bin	0.48	0
bin	0.5	0
scalar Multihop.hostG.wlan[0].radio transmissionState:count 2392
attr interpolationmode sample-hold
attr source transmissionStateChanged
attr title "Radio transmission state, count"
scalar Multihop.hostG.wlan[0].radio receptionState:count 5669
attr interpolationmode sample-hold
attr source receptionStateChanged
attr title "Radio reception state, count"
scalar Multihop.hostG.wlan[0].radio radioMode:count 1199
attr interpolationmode sample-hold
attr source radioModeChanged
attr title "Radio mode, count"
scalar Multihop.hostG.ipv4.ip packetDropAddressResolutionFailed:count 0
attr interpolationmode none
attr source packetDropReasonIsAddressResolutionFailed(packetDropped)
attr title "packet drop: address resolution failed, count"
scalar Multihop.hostG.ipv4.ip packetDropAddressResolutionFailed:sum(packetBytes) 0
attr interpolationmode none
attr source packetDropReasonIsAddressResolutionFailed(packetDropped)
attr title "packet drop: address resolution failed, sum(packetBytes)"
scalar Multihop.hostG.ipv4.ip packetDropHopLimitReached:count 0
attr interpolationmode none
attr source packetDropReasonIsHopLimitReached(packetDropped)
attr title "packet drop: hop limit reached, count"
scalar Multihop.hostG.ipv4.ip packetDropHopLimitReached:sum(packetBytes) 0
attr interpolationmode none
attr source packetDropReasonIsHopLimitReached(packetDropped)
attr title "packet drop: hop limit reached, sum(packetBytes)"
scalar Multihop.hostG.ipv4.ip packetDropForwardingDisabled:count 0
attr interpolationmode none
attr source packetDropReasonIsForwardingDisabled(packetDropped)
attr title "packet drop: forwarding disabled, count"
scalar Multihop.hostG.ipv4.ip packetDropForwardingDisabled:sum(packetBytes) 0
attr interpolationmode none
attr source packetDropReasonIsForwardingDisabled(packetDropped)
attr title "packet drop: forwarding disabled, sum(packetBytes)"
scalar Multihop.hostG.ipv4.ip packetDropNoInterfaceFound:count 0
attr interpolationmode none
attr source packetDropReasonIsNoInterfaceFound(packetDropped)
attr title "packet drop: no interface found, count"
scalar Multihop.hostG.ipv4.ip packetDropNoInterfaceFound:sum(packetBytes) 0
attr interpolationmode none
attr source packetDropReasonIsNoInterfaceFound(packetDropped)
attr title "packet drop: no interface found, sum(packetBytes)"
scalar Multihop.hostG.ipv4.ip packetDropNoRouteFound:count 0
attr interpolationmode none
attr source packetDropReasonIsNoRouteFound(packetDropped)
attr title "packet drop: no route found, count"
scalar Multihop.hostG.ipv4.ip packetDropNoRouteFound:sum(packetBytes) 0
attr interpolationmode none
attr source packetDropReasonIsNoRouteFound(packetDropped)
attr title "packet drop: no route found, sum(packetBytes)"
scalar Multihop.hostG.ipv4.ip packetDropUndefined:count 0
attr interpolationmode none
attr source packetDropReasonIsUndefined(packetDropped)
attr title "packet drop: undefined, count"
scalar Multihop.hostG.ipv4.ip packetDropUndefined:sum(packetBytes) 0
attr interpolationmode none
attr source packetDropReasonIsUndefined(packetDropped)
attr title "packet drop: undefined, sum(packetBytes)"
scalar Multihop.hostG.udp packetReceived:count 23
attr interpolationmode none
attr source packetReceived
attr title "packets received, count"
scalar Multihop.hostG.udp packetReceived:sum(packetBytes) 708
attr interpolationmode none
attr source packetReceived
attr title "packets received, sum(packetBytes)"
scalar Multihop.hostG.udp packetSent:count 14
attr interpolationmode none
attr source packetSent
attr title "packets sent, count"
scalar Multihop.hostG.udp packetSent:sum(packetBytes) 424
attr interpolationmode none
attr source packetSent
attr title "packets sent, sum(packetBytes)"
scalar Multihop.hostG.udp passedUpPk:count 23
attr interpolationmode none
attr source packetSentToUpper
attr title "packets passed up, count"
scalar Multihop.hostG.udp droppedPkWrongPort:count 0
attr interpolationmode none
attr source packetDropReasonIsNoPortFound(packetDropped)
attr title "packets dropped (wrong port), count"
scalar Multihop.hostG.udp droppedPkBadChecksum:count 0
attr interpolationmode none
attr source packetDropReasonIsIncorrectlyReceived(packetDropped)
attr title "packets dropped (checksum error), count"
scalar Multihop.hostH.lo[0].lo rcvdPkFromHl:count 0
attr interpolationmode none
attr source packetReceivedFromUpper
attr title "packets received from higher layer, count"
scalar Multihop.hostH.lo[0].lo rcvdPkFromHl:sum(packetBytes) 0
attr interpolationmode none
attr source packetReceivedFromUpper
attr title "packets received from higher layer, sum(packetBytes)"
scalar Multihop.hostH.lo[0].lo passedUpPk:count 0
attr interpolationmode none
attr source packetSentToUpper
attr title "packets passed to higher layer, count"
scalar Multihop.hostH.lo[0].lo passedUpPk:sum(packetBytes) 0
attr interpolationmode none
attr source packetSentToUpper
attr title "packets passed to higher layer, sum(packetBytes)"
scalar Multihop.hostH.wlan[0].mac.queue packetPopped:count 325
attr interpolationmode none
attr title "packet popped, count"
scalar Multihop.hostH.wlan[0].mac.queue packetPopped:sum(packetBytes) 333113
attr interpolationmode none
attr title "packet popped, sum(packetBytes)"
statistic Multihop.hostH.wlan[0].mac.queue queueingTime:histogram
field count 325
field mean 0.00195803182912
field stddev 0.0048958127156686
field min 0
field max 0.02719533564
field sum 0.636360344464
field sqrsum 0.0090119640248466
attr interpolationmode none
attr source queueingTime(packetPopped)
attr title "queueing times, histogram"
attr unit s
bin	-inf	0
bin	0	272
bin	0.0005	1
bin	0.001	0
bin	0.0015	0
bin	0.002	0
bin	0.0025	0
bin	0.003	0
bin	0.0035	0
bin	0.004	1
bin	0.0045	0
bin	0.005	0
bin	0.0055	0
bin	0.006	0
bin	0.0065	0
bin	0.007	0
bin	0.0075	0
bin	0.008	0
bin	0.0085	1
bin	0.009	34
bin	0.0095	0
bin	0.01	0
bin	0.0105	0
bin	0.011	0
bin	0.0115	0
bin	0.012	0
bin	0.0125	0
bin	0.013	0
bin	0.0135	0
bin	0.014	0
bin	0.0145	0
bin	0.015	0
bin	0.0155	0
bin	0.016	0
bin	0.0165	0
bin	0.017	0
bin	0.0175	5
bin	0.018	8
bin	0.0185	1
bin	0.019	0
bin	0.0195	0
bin	0.02	0
bin	0.0205	0
bin	0.021	0
bin	0.0215	0
bin	0.022	0
bin	0.0225	0
bin	0.023	0
bin	0.0235	0
bin	0.024	0
bin	0.0245	0
bin	0.025	0
bin	0.0255	0
bin	0.026	0
bin	0.0265	0
bin	0.027	2
bin	0.0275	0
scalar Multihop.hostH.wlan[0].mac.queue queueLength:max 2
attr interpolationmode sample-hold
attr source "count(packetPushed) - count(packetPopped) - count(packetRemoved) - count(packetDropped)"
attr title "queue length, max"
scalar Multihop.hostH.wlan[0].mac.queue queueLength:timeavg 0.032373565212491
attr interpolationmode sample-hold
attr source "count(packetPushed) - count(packetPopped) - count(packetRemoved) - count(packetDropped)"
attr title "queue length, timeavg"
scalar Multihop.hostH.wlan[0].mac.queue packetPushed:count 325
attr interpolationmode none
attr title "packet pushed, count"
scalar Multihop.hostH.wlan[0].mac.queue packetPushed:sum(packetBytes) 333113
attr interpolationmode none
attr title "packet pushed, sum(packetBytes)"
scalar Multihop.hostH.wlan[0].mac.queue packetDropQueueOverflow:count 0
attr interpolationmode none
attr source packetDropReasonIsQueueOverflow(packetDropped)
attr title "packet drops: queue overflow, count"
scalar Multihop.hostH.wlan[0].mac.queue packetDropQueueOverflow:sum(packetBytes) 0
attr interpolationmode none
attr source packetDropReasonIsQueueOverflow(packetDropped)
attr title "packet drops: queue overflow, sum(packetBytes)"
scalar Multihop.hostH.wlan[0].mac.queue packetRemoved:count 0
attr interpolationmode none
attr title "packets removed, count"
scalar Multihop.hostH.wlan[0].mac.queue packetRemoved:sum(packetBytes) 0
attr interpolationmode none
attr title "packets removed, sum(packetBytes)"
scalar Multihop.hostH.wlan[0].mac numRetry 0
scalar Multihop.hostH.wlan[0].mac numSentWithoutRetry 318
scalar Multihop.hostH.wlan[0].mac numGivenUp 0
scalar Multihop.hostH.wlan[0].mac numCollision 31
scalar Multihop.hostH.wlan[0].mac numSent 318
scalar Multihop.hostH.wlan[0].mac numReceived 318
scalar Multihop.hostH.wlan[0].mac numSentBroadcast 7
scalar Multihop.hostH.wlan[0].mac numReceivedBroadcast 18
scalar Multihop.hostH.wlan[0].mac packetDropIncorrectlyReceived:count 31
attr interpolationmode none
attr source packetDropReasonIsIncorrectlyReceived(packetDropped)
attr title "packet drop: incorrectly received, count"
scalar Multihop.hostH.wlan[0].mac packetDropIncorrectlyReceived:sum(packetBytes) 27635
attr interpolationmode none
attr source packetDropReasonIsIncorrectlyReceived(packetDropped)
attr title "packet drop: incorrectly received, sum(packetBytes)"
scalar Multihop.hostH.wlan[0].mac packetDropNotAddressedToUs:count 301
attr interpolationmode none
attr source packetDropReasonIsNotAddressedToUs(packetDropped)
attr title "packet drop: not addressed to us, count"
scalar Multihop.hostH.wlan[0].mac packetDropNotAddressedToUs:sum(packetBytes) 304969
attr interpolationmode none
attr source packetDropReasonIsNotAddressedToUs(packetDropped)
attr title "packet drop: not addressed to us, sum(packetBytes)"
scalar Multihop.hostH.wlan[0].mac packetDropQueueOverflow:count 0
attr interpolationmode none
attr source packetDropReasonIsQueueOverflow(packetDropped)
attr title "packet drop: queue overflow, count"
scalar Multihop.hostH.wlan[0].mac packetDropQueueOverflow:sum(packetBytes) 0
attr interpolationmode none
attr source packetDropReasonIsQueueOverflow(packetDropped)
attr title "packet drop: queue overflow, sum(packetBytes)"
scalar Multihop.hostH.wlan[0].mac packetDropRetryLimitReached:count 0
attr interpolationmode none
attr source packetDropReasonIsRetryLimitReached(packetDropped)
attr title "packet drop: retry limit reached, count"
scalar Multihop.hostH.wlan[0].mac packetDropRetryLimitReached:sum(packetBytes) 0
attr interpolationmode none
attr source packetDropReasonIsRetryLimitReached(packetDropped)
attr title "packet drop: retry limit reached, sum(packetBytes)"
scalar Multihop.hostH.wlan[0].mac linkBroken:count 0
attr interpolationmode none
attr source linkBroken
attr title "link break, count"
statistic Multihop.hostH.wlan[0].radio minSnir:histogram
field count 1791
field mean 2199.033353772
field stddev 1680.3938871367
field min 0.14059298548131
field max 4391.5383156971
field sum 3938468.7366057
field sqrsum 13715289387.093
attr source minimumSnir(packetSentToUpper)
attr title "Min SNIR, histogram"
bin	-inf	0
bin	0	207
bin	100	0
bin	200	0
bin	300	0
bin	400	0
bin	500	0
bin	600	555
bin	700	0
bin	800	0
bin	900	0
bin	1000	0
bin	1100	0
bin	1200	0
bin	1300	0
bin	1400	0
bin	1500	0
bin	1600	0
bin	1700	0
bin	1800	0
bin	1900	0
bin	2000	0
bin	2100	0
bin	2200	0
bin	2300	0
bin	2400	481
bin	2500	0
bin	2600	0
bin	2700	0
bin	2800	0
bin	2900	0
bin	3000	0
bin	3100	0
bin	3200	0
bin	3300	0
bin	3400	0
bin	3500	0
bin	3600	0
bin	3700	0
bin	3800	0
bin	3900	0
bin	4000	0
bin	4100	0
bin	4200	0
bin	4300	548
bin	4400	0
bin	4500	0
bin	4600	0
bin	4700	0
bin	4800	0
bin	4900	0
bin	5000	0
bin	5100	0
bin	5200	0
bin	5300	0
bin	5400	0
bin	5500	0
statistic Multihop.hostH.wlan[0].radio packetErrorRate:histogram
field count 1791
field mean 0.016081416150326
field stddev 0.12473078746398
field min 0
field max 1
field sum 28.801816325233
field sqrsum 28.311581115292
attr source packetErrorRate(packetSentToUpper)
attr title "Packet error rate, histogram"
bin	-inf	0
bin	-0.5	0
bin	-0.48	0
bin	-0.46	0
bin	-0.44	0
bin	-0.42	0
bin	-0.4	0
bin	-0.38	0
bin	-0.36	0
bin	-0.34	0
bin	-0.32	0
bin	-0.3	0
bin	-0.28	0
bin	-0.26	0
bin	-0.24	0
bin	-0.22	0
bin	-0.2	0
bin	-0.18	0
bin	-0.16	0
bin	-0.14	0
bin	-0.12	0
bin	-0.1	0
bin	-0.08	0
bin	-0.06	0
bin	-0.04	0
bin	-0.02	0
bin	0	1761
bin	0.02	0
bin	0.04	0
bin	0.06	0
bin	0.08	0
bin	0.1	0
bin	0.12	0
bin	0.14	0
bin	0.16	0
bin	0.18	0
bin	0.2	0
bin	0.22	0
bin	0.24	0
bin	0.26	0
bin	0.28	0
bin	0.3	0
bin	0.32	0
bin	0.34	0
bin	0.36	0
bin	0.38	2
bin	0.4	0
bin	0.42	0
bin	0.44	0
bin	0.46	0
bin	0.48	0
bin	0.5	0
bin	0.52	0
bin	0.54	0
bin	0.56	0
bin	0.58	0
bin	0.6	0
bin	0.62	0
bin	0.64	0
bin	0.66	0
bin	0.68	0
bin	0.7	0
bin	0.72	0
bin	0.74	0
bin	0.76	0
bin	0.78	0
bin	0.8	0
bin	0.82	0
bin	0.84	0
bin	0.86	0
bin	0.88	0
bin	0.9	0
bin	0.92	0
bin	0.94	0
bin	0.96	0
bin	0.98	1
bin	1	27
bin	1.02	0
statistic Multihop.hostH.wlan[0].radio bitErrorRate:histogram
field count 1791
field mean 0.0010345549472523
field stddev 0.0088122102123682
field min 0
field max 0.11786661866713
field sum 1.8528879105289
field sqrsum 0.14091945175481
attr source bitErrorRate(packetSentToUpper)
attr title "Bit error rate, histogram"
bin	-inf	0
bin	0	1763
bin	0.002	0
bin	0.004	0
bin	0.006	0
bin	0.008	1
bin	0.01	0
bin	0.012	0
bin	0.014	0
bin	0.016	0
bin	0.018	0
bin	0.02	0
bin	0.022	0
bin	0.024	0
bin	0.026	0
bin	0.028	0
bin	0.03	0
bin	0.032	0
bin	0.034	0
bin	0.036	0
bin	0.038	0
bin	0.04	0
bin	0.042	0
bin	0.044	0
bin	0.046	0
bin	0.048	0
bin	0.05	0
bin	0.052	0
bin	0.054	0
bin	0.056	22
bin	0.058	0
bin	0.06	0
bin	0.062	0
bin	0.064	0
bin	0.066	0
bin	0.068	0
bin	0.07	0
bin	0.072	0
bin	0.074	0
bin	0.076	0
bin	0.078	0
bin	0.08	0
bin	0.082	0
bin	0.084	0
bin	0.086	0
bin	0.088	0
bin	0.09	0
bin	0.092	0
bin	0.094	0
bin	0.096	0
bin	0.098	0
bin	0.1	0
bin	0.102	0
bin	0.104	0
bin	0.106	0
bin	0.108	0
bin	0.11	0
bin	0.112	0
bin	0.114	0
bin	0.116	5
bin	0.118	0
statistic Multihop.hostH.wlan[0].radio symbolErrorRate:histogram
field count 1791
field mean 0.001990427900225
field stddev 0.016858998379977
field min 0
field max 0.22184069753823
field sum 3.5648563693029
field sqrsum 0.51585981879093
attr source symbolErrorRate(packetSentToUpper)
attr title "Symbol error rate, histogram"
bin	-inf	0
bin	-0.5	0
bin	-0.48	0
bin	-0.46	0
bin	-0.44	0
bin	-0.42	0
bin	-0.4	0
bin	-0.38	0
bin	-0.36	0
bin	-0.34	0
bin	-0.32	0
bin	-0.3	0
bin	-0.28	0
bin	-0.26	0
bin	-0.24	0
bin	-0.22	0
bin	-0.2	0
bin	-0.18	0
bin	-0.16	0
bin	-0.14	0
bin	-0.12	0
bin	-0.1	0
bin	-0.08	0
bin	-0.06	0
bin	-0.04	0
bin	-0.02	0
bin	0	1764
bin	0.02	0
bin	0.04	0
bin	0.06	0
bin	0.08	0
bin	0.1	22
bin	0.12	0
bin	0.14	0
bin	0.16	0
bin	0.18	0
bin	0.2	0
bin	0.22	5
bin	0.24	0
bin	0.26	0
bin	0.28	0
bin	0.3	0
bin	0.32	0
bin	0.34	0
bin	0.36	0
bin	0.38	0
bin	0.4	0
bin	0.42	0
bin	0.44	0
bin	0.46	0
bin	0.48	0
bin	0.5	0
scalar Multihop.hostH.wlan[0].radio transmissionState:count 2572
attr interpolationmode sample-hold
attr source transmissionStateChanged
attr title "Radio transmission state, count"
scalar Multihop.hostH.wlan[0].radio receptionState:count 4954
attr interpolationmode sample-hold
attr source receptionStateChanged
attr title "Radio reception state, count"
scalar Multihop.hostH.wlan[0].radio radioMode:count 1289
attr interpolationmode sample-hold
attr source radioModeChanged
attr title "Radio mode, count"
scalar Multihop.hostH.ipv4.ip packetDropAddressResolutionFailed:count 0
attr interpolationmode none
attr source packetDropReasonIsAddressResolutionFailed(packetDropped)
attr title "packet drop: address resolution failed, count"
scalar Multihop.hostH.ipv4.ip packetDropAddressResolutionFailed:sum(packetBytes) 0
attr interpolationmode none
attr source packetDropReasonIsAddressResolutionFailed(packetDropped)
attr title "packet drop: address resolution failed, sum(packetBytes)"
scalar Multihop.hostH.ipv4.ip packetDropHopLimitReached:count 0
attr interpolationmode none
attr source packetDropReasonIsHopLimitReached(packetDropped)
attr title "packet drop: hop limit reached, count"
scalar Multihop.hostH.ipv4.ip packetDropHopLimitReached:sum(packetBytes) 0
attr interpolationmode none
attr source packetDropReasonIsHopLimitReached(packetDropped)
attr title "packet drop: hop limit reached, sum(packetBytes)"
scalar Multihop.hostH.ipv4.ip packetDropForwardingDisabled:count 0
attr interpolationmode none
attr source packetDropReasonIsForwardingDisabled(packetDropped)
attr title "packet drop: forwarding disabled, count"
scalar Multihop.hostH.ipv4.ip packetDropForwardingDisabled:sum(packetBytes) 0
attr interpolationmode none
attr source packetDropReasonIsForwardingDisabled(packetDropped)
attr title "packet drop: forwarding disabled, sum(packetBytes)"
scalar Multihop.hostH.ipv4.ip packetDropNoInterfaceFound:count 0
attr interpolationmode none
attr source packetDropReasonIsNoInterfaceFound(packetDropped)
attr title "packet drop: no interface found, count"
scalar Multihop.hostH.ipv4.ip packetDropNoInterfaceFound:sum(packetBytes) 0
attr interpolationmode none
attr source packetDropReasonIsNoInterfaceFound(packetDropped)
attr title "packet drop: no interface found, sum(packetBytes)"
scalar Multihop.hostH.ipv4.ip packetDropNoRouteFound:count 0
attr interpolationmode none
attr source packetDropReasonIsNoRouteFound(packetDropped)
attr title "packet drop: no route found, count"
scalar Multihop.hostH.ipv4.ip packetDropNoRouteFound:sum(packetBytes) 0
attr interpolationmode none
attr source packetDropReasonIsNoRouteFound(packetDropped)
attr title "packet drop: no route found, sum(packetBytes)"
scalar Multihop.hostH.ipv4.ip packetDropUndefined:count 0
attr interpolationmode none
attr source packetDropReasonIsUndefined(packetDropped)
attr title "packet drop: undefined, count"
scalar Multihop.hostH.ipv4.ip packetDropUndefined:sum(packetBytes) 0
attr interpolationmode none
attr source packetDropReasonIsUndefined(packetDropped)
attr title "packet drop: undefined, sum(packetBytes)"
scalar Multihop.hostH.udp packetReceived:count 19
attr interpolationmode none
attr source packetReceived
attr title "packets received, count"
scalar Multihop.hostH.udp packetReceived:sum(packetBytes) 600
attr interpolationmode none
attr source packetReceived
attr title "packets received, sum(packetBytes)"
scalar Multihop.hostH.udp packetSent:count 8
attr interpolationmode none
attr source packetSent
attr title "packets sent, count"
scalar Multihop.hostH.udp packetSent:sum(packetBytes) 252
attr interpolationmode none
attr source packetSent
attr title "packets sent, sum(packetBytes)"
scalar Multihop.hostH.udp passedUpPk:count 19
attr interpolationmode none
attr source packetSentToUpper
attr title "packets passed up, count"
scalar Multihop.hostH.udp droppedPkWrongPort:count 0
attr interpolationmode none
attr source packetDropReasonIsNoPortFound(packetDropped)
attr title "packets dropped (wrong port), count"
scalar Multihop.hostH.udp droppedPkBadChecksum:count 0
attr interpolationmode none
attr source packetDropReasonIsIncorrectlyReceived(packetDropped)
attr title "packets dropped (checksum error), count"

