version 2
run DSCP-0-20220819-03:29:01-34764
attr configname DSCP
attr datetime 20220819-03:29:01
attr experiment DSCP
attr inifile omnetpp.ini
attr iterationvars ""
attr iterationvarsf ""
attr measurement ""
attr network Multihop
attr processid 34764
attr repetition 0
attr replication #0
attr resultdir results
attr runnumber 0
attr seedset 0
param *.hostA.numApps 2
param *.hostA.app[0].dscp 0
param *.hostA.app[0].messageLength 1000B
param *.hostA.app[0].sendInterval exponential(10ms)
param *.hostA.app[0].packetName "\"UDPData-Standard\""
param *.hostA.app[1].typename "\"UdpBasicApp\""
param *.hostA.app[1].destAddresses "\"hostB\""
param *.hostA.app[1].destPort 5000
param *.hostA.app[1].messageLength 1000B
param *.hostA.app[1].sendInterval exponential(10ms)
param *.hostA.app[1].packetName "\"UDPData-Priority\""
param *.hostA.app[1].dscp 14
param *.radioMedium.typename "\"ApskScalarRadioMedium\""
param *.radioMedium.backgroundNoise.power -110dBm
param *.radioMedium.mediumLimitCache.centerFrequency 2.4GHz
param *.host*.wlan[0].radio.typename "\"ApskScalarRadio\""
param *.host*.wlan[0].radio.centerFrequency 2.4GHz
param *.host*.wlan[0].radio.bandwidth 5MHz
param *.host*.wlan[0].radio.transmitter.modulation "\"QPSK\""
param *.host*.wlan[0].radio.transmitter.power 10mW
param *.host*.wlan[0].radio.transmitter.preambleDuration 10us
param *.host*.wlan[0].radio.transmitter.headerLength 8B
param *.host*.wlan[0].radio.receiver.modulation "\"QPSK\""
param *.host*.wlan[0].radio.receiver.sensitivity -120dBm
param *.host*.wlan[0].radio.receiver.energyDetection -100dBm
param *.host*.wlan[0].radio.receiver.snirThreshold 4dB
param *.host*.ipv4.arp.typename "\"GlobalArp\""
param *.host*.forwarding true
param *.configurator.optimizeRoutes false
param *.hostA.numApps 1
param *.hostA.app[0].typename "\"UdpBasicApp\""
param *.hostA.app[0].destAddresses "\"hostB\""
param *.hostA.app[0].destPort 5000
param *.hostA.app[0].messageLength 1000B
param *.hostA.app[0].sendInterval exponential(12ms)
param *.hostA.app[0].packetName "\"UDPData\""
param *.hostB.numApps 1
param *.hostB.app[0].typename "\"UdpSink\""
param *.hostB.app[0].localPort 5000
param *.host*.wlan[0].typename "\"WirelessInterface\""
param *.host*.wlan[0].radio.typename "\"UnitDiskRadio\""
param *.host*.wlan[0].radio.transmitter.communicationRange 300m
param *.host*.wlan[0].radio.transmitter.interferenceRange 500m
param *.host*.wlan[0].mac.typename "\"CsmaCaMac\""
param *.host*.wlan[0].mac.ackTimeout 300us
param *.host*.wlan[0].mac.useAck true
param *.host*.wlan[0].queue.typename "\"DropTailQueue\""
param *.host*.**.bitrate 1Mbps
param *.hostA.wlan[0].radio.displayCommunicationRange true
param *.hostC.wlan[0].radio.displayCommunicationRange true
param *.configurator.addStaticRoutes false
param *.host*.typename "\"AodvRouter\""
param *.host*.mobility.typename "\"StationaryMobility\""
param *.host*.mobility.initialZ 0.1m
param *.physicalEnvironment.config "xmldoc(\"mine.xml\")"
param *.radioMedium.obstacleLoss.typename "\"IdealObstacleLoss\""
param *.visualizer.sceneVisualizer.descriptionFigure "\"title\""
param *.visualizer.physicalLinkVisualizer.displayLinks true
param *.visualizer.physicalLinkVisualizer.packetFilter "\"UDPData*\""

vector 0 Multihop.hostA.wlan[0].radio radioMode:vector ETV
attr interpolationmode sample-hold
attr source radioModeChanged
attr title "Radio mode, vector"
vector 1 Multihop.hostB.wlan[0].radio radioMode:vector ETV
attr interpolationmode sample-hold
attr source radioModeChanged
attr title "Radio mode, vector"
vector 2 Multihop.hostC.wlan[0].radio radioMode:vector ETV
attr interpolationmode sample-hold
attr source radioModeChanged
attr title "Radio mode, vector"
vector 3 Multihop.hostD.wlan[0].radio radioMode:vector ETV
attr interpolationmode sample-hold
attr source radioModeChanged
attr title "Radio mode, vector"
vector 4 Multihop.hostE.wlan[0].radio radioMode:vector ETV
attr interpolationmode sample-hold
attr source radioModeChanged
attr title "Radio mode, vector"
vector 5 Multihop.hostF.wlan[0].radio radioMode:vector ETV
attr interpolationmode sample-hold
attr source radioModeChanged
attr title "Radio mode, vector"
vector 6 Multihop.hostG.wlan[0].radio radioMode:vector ETV
attr interpolationmode sample-hold
attr source radioModeChanged
attr title "Radio mode, vector"
vector 7 Multihop.hostH.wlan[0].radio radioMode:vector ETV
attr interpolationmode sample-hold
attr source radioModeChanged
attr title "Radio mode, vector"
vector 8 Multihop.hostA.wlan[0].radio receptionState:vector ETV
attr interpolationmode sample-hold
attr source receptionStateChanged
attr title "Radio reception state, vector"
vector 9 Multihop.hostB.wlan[0].radio receptionState:vector ETV
attr interpolationmode sample-hold
attr source receptionStateChanged
attr title "Radio reception state, vector"
vector 10 Multihop.hostC.wlan[0].radio receptionState:vector ETV
attr interpolationmode sample-hold
attr source receptionStateChanged
attr title "Radio reception state, vector"
vector 11 Multihop.hostD.wlan[0].radio receptionState:vector ETV
attr interpolationmode sample-hold
attr source receptionStateChanged
attr title "Radio reception state, vector"
vector 12 Multihop.hostE.wlan[0].radio receptionState:vector ETV
attr interpolationmode sample-hold
attr source receptionStateChanged
attr title "Radio reception state, vector"
vector 13 Multihop.hostF.wlan[0].radio receptionState:vector ETV
attr interpolationmode sample-hold
attr source receptionStateChanged
attr title "Radio reception state, vector"
vector 14 Multihop.hostG.wlan[0].radio receptionState:vector ETV
attr interpolationmode sample-hold
attr source receptionStateChanged
attr title "Radio reception state, vector"
vector 15 Multihop.hostH.wlan[0].radio receptionState:vector ETV
attr interpolationmode sample-hold
attr source receptionStateChanged
attr title "Radio reception state, vector"
vector 16 Multihop.hostA.app[0] packetSent:vector(packetBytes) ETV
attr interpolationmode none
attr source packetSent
attr title "packets sent, vector(packetBytes)"
vector 17 Multihop logPacketSent:vector(count) ETV
attr source hostA.app[0].packetSent
vector 18 Multihop.hostA.udp packetSent:vector(packetBytes) ETV
attr interpolationmode none
attr source packetSent
attr title "packets sent, vector(packetBytes)"
vector 19 Multihop.hostA.wlan[0].mac.queue packetPushed:vector(packetBytes) ETV
attr interpolationmode none
attr title "packet pushed, vector(packetBytes)"
vector 20 Multihop.hostA.wlan[0].mac.queue queueLength:vector ETV
attr interpolationmode sample-hold
attr source "count(packetPushed) - count(packetPopped) - count(packetRemoved) - count(packetDropped)"
attr title "queue length, vector"
vector 21 Multihop.hostA.wlan[0].mac.queue packetPopped:vector(packetBytes) ETV
attr interpolationmode none
attr title "packet popped, vector(packetBytes)"
vector 22 Multihop.hostA.wlan[0].mac.queue queueingTime:vector ETV
attr interpolationmode none
attr source queueingTime(packetPopped)
attr title "queueing times, vector"
attr unit s
vector 23 Multihop.hostA.wlan[0].radio transmissionState:vector ETV
attr interpolationmode sample-hold
attr source transmissionStateChanged
attr title "Radio transmission state, vector"
vector 24 Multihop.hostC.udp packetReceived:vector(packetBytes) ETV
attr interpolationmode none
attr source packetReceived
attr title "packets received, vector(packetBytes)"
vector 25 Multihop.hostC.udp passedUpPk:vector(count) ETV
attr interpolationmode none
attr source packetSentToUpper
attr title "packets passed up, vector(count)"
vector 26 Multihop.hostD.udp packetReceived:vector(packetBytes) ETV
attr interpolationmode none
attr source packetReceived
attr title "packets received, vector(packetBytes)"
vector 27 Multihop.hostD.udp passedUpPk:vector(count) ETV
attr interpolationmode none
attr source packetSentToUpper
attr title "packets passed up, vector(count)"
vector 28 Multihop.hostA.app[1] packetSent:vector(packetBytes) ETV
attr interpolationmode none
attr source packetSent
attr title "packets sent, vector(packetBytes)"
vector 29 Multihop.hostD.udp packetSent:vector(packetBytes) ETV
attr interpolationmode none
attr source packetSent
attr title "packets sent, vector(packetBytes)"
vector 30 Multihop.hostD.wlan[0].mac.queue packetPushed:vector(packetBytes) ETV
attr interpolationmode none
attr title "packet pushed, vector(packetBytes)"
vector 31 Multihop.hostD.wlan[0].mac.queue queueLength:vector ETV
attr interpolationmode sample-hold
attr source "count(packetPushed) - count(packetPopped) - count(packetRemoved) - count(packetDropped)"
attr title "queue length, vector"
vector 32 Multihop.hostD.wlan[0].mac.queue packetPopped:vector(packetBytes) ETV
attr interpolationmode none
attr title "packet popped, vector(packetBytes)"
vector 33 Multihop.hostD.wlan[0].mac.queue queueingTime:vector ETV
attr interpolationmode none
attr source queueingTime(packetPopped)
attr title "queueing times, vector"
attr unit s
vector 34 Multihop.hostC.udp packetSent:vector(packetBytes) ETV
attr interpolationmode none
attr source packetSent
attr title "packets sent, vector(packetBytes)"
vector 35 Multihop.hostC.wlan[0].mac.queue packetPushed:vector(packetBytes) ETV
attr interpolationmode none
attr title "packet pushed, vector(packetBytes)"
vector 36 Multihop.hostC.wlan[0].mac.queue queueLength:vector ETV
attr interpolationmode sample-hold
attr source "count(packetPushed) - count(packetPopped) - count(packetRemoved) - count(packetDropped)"
attr title "queue length, vector"
vector 37 Multihop.hostC.wlan[0].mac.queue packetPopped:vector(packetBytes) ETV
attr interpolationmode none
attr title "packet popped, vector(packetBytes)"
vector 38 Multihop.hostC.wlan[0].mac.queue queueingTime:vector ETV
attr interpolationmode none
attr source queueingTime(packetPopped)
attr title "queueing times, vector"
attr unit s
vector 39 Multihop.hostD.wlan[0].radio transmissionState:vector ETV
attr interpolationmode sample-hold
attr source transmissionStateChanged
attr title "Radio transmission state, vector"
vector 40 Multihop.hostF.udp packetReceived:vector(packetBytes) ETV
attr interpolationmode none
attr source packetReceived
attr title "packets received, vector(packetBytes)"
vector 41 Multihop.hostF.udp passedUpPk:vector(count) ETV
attr interpolationmode none
attr source packetSentToUpper
attr title "packets passed up, vector(count)"
vector 42 Multihop.hostA.udp packetReceived:vector(packetBytes) ETV
attr interpolationmode none
attr source packetReceived
attr title "packets received, vector(packetBytes)"
vector 43 Multihop.hostA.udp passedUpPk:vector(count) ETV
attr interpolationmode none
attr source packetSentToUpper
attr title "packets passed up, vector(count)"
vector 44 Multihop.hostH.udp packetReceived:vector(packetBytes) ETV
attr interpolationmode none
attr source packetReceived
attr title "packets received, vector(packetBytes)"
vector 45 Multihop.hostH.udp passedUpPk:vector(count) ETV
attr interpolationmode none
attr source packetSentToUpper
attr title "packets passed up, vector(count)"
vector 46 Multihop.hostC.wlan[0].radio transmissionState:vector ETV
attr interpolationmode sample-hold
attr source transmissionStateChanged
attr title "Radio transmission state, vector"
vector 47 Multihop.hostE.udp packetReceived:vector(packetBytes) ETV
attr interpolationmode none
attr source packetReceived
attr title "packets received, vector(packetBytes)"
vector 48 Multihop.hostE.udp passedUpPk:vector(count) ETV
attr interpolationmode none
attr source packetSentToUpper
attr title "packets passed up, vector(count)"
vector 49 Multihop.hostG.udp packetReceived:vector(packetBytes) ETV
attr interpolationmode none
attr source packetReceived
attr title "packets received, vector(packetBytes)"
vector 50 Multihop.hostG.udp passedUpPk:vector(count) ETV
attr interpolationmode none
attr source packetSentToUpper
attr title "packets passed up, vector(count)"
vector 51 Multihop.hostF.udp packetSent:vector(packetBytes) ETV
attr interpolationmode none
attr source packetSent
attr title "packets sent, vector(packetBytes)"
vector 52 Multihop.hostF.wlan[0].mac.queue packetPushed:vector(packetBytes) ETV
attr interpolationmode none
attr title "packet pushed, vector(packetBytes)"
vector 53 Multihop.hostF.wlan[0].mac.queue queueLength:vector ETV
attr interpolationmode sample-hold
attr source "count(packetPushed) - count(packetPopped) - count(packetRemoved) - count(packetDropped)"
attr title "queue length, vector"
vector 54 Multihop.hostF.wlan[0].mac.queue packetPopped:vector(packetBytes) ETV
attr interpolationmode none
attr title "packet popped, vector(packetBytes)"
vector 55 Multihop.hostF.wlan[0].mac.queue queueingTime:vector ETV
attr interpolationmode none
attr source queueingTime(packetPopped)
attr title "queueing times, vector"
attr unit s
vector 56 Multihop.hostF.wlan[0].radio transmissionState:vector ETV
attr interpolationmode sample-hold
attr source transmissionStateChanged
attr title "Radio transmission state, vector"
vector 57 Multihop.hostH.udp packetSent:vector(packetBytes) ETV
attr interpolationmode none
attr source packetSent
attr title "packets sent, vector(packetBytes)"
vector 58 Multihop.hostH.wlan[0].mac.queue packetPushed:vector(packetBytes) ETV
attr interpolationmode none
attr title "packet pushed, vector(packetBytes)"
vector 59 Multihop.hostH.wlan[0].mac.queue queueLength:vector ETV
attr interpolationmode sample-hold
attr source "count(packetPushed) - count(packetPopped) - count(packetRemoved) - count(packetDropped)"
attr title "queue length, vector"
vector 60 Multihop.hostH.wlan[0].mac.queue packetPopped:vector(packetBytes) ETV
attr interpolationmode none
attr title "packet popped, vector(packetBytes)"
vector 61 Multihop.hostH.wlan[0].mac.queue queueingTime:vector ETV
attr interpolationmode none
attr source queueingTime(packetPopped)
attr title "queueing times, vector"
attr unit s
vector 62 Multihop.hostE.udp packetSent:vector(packetBytes) ETV
attr interpolationmode none
attr source packetSent
attr title "packets sent, vector(packetBytes)"
vector 63 Multihop.hostE.wlan[0].mac.queue packetPushed:vector(packetBytes) ETV
attr interpolationmode none
attr title "packet pushed, vector(packetBytes)"
vector 64 Multihop.hostE.wlan[0].mac.queue queueLength:vector ETV
attr interpolationmode sample-hold
attr source "count(packetPushed) - count(packetPopped) - count(packetRemoved) - count(packetDropped)"
attr title "queue length, vector"
vector 65 Multihop.hostE.wlan[0].mac.queue packetPopped:vector(packetBytes) ETV
attr interpolationmode none
attr title "packet popped, vector(packetBytes)"
vector 66 Multihop.hostE.wlan[0].mac.queue queueingTime:vector ETV
attr interpolationmode none
attr source queueingTime(packetPopped)
attr title "queueing times, vector"
attr unit s
vector 67 Multihop.hostH.wlan[0].radio transmissionState:vector ETV
attr interpolationmode sample-hold
attr source transmissionStateChanged
attr title "Radio transmission state, vector"
vector 68 Multihop.hostE.wlan[0].radio transmissionState:vector ETV
attr interpolationmode sample-hold
attr source transmissionStateChanged
attr title "Radio transmission state, vector"
vector 69 Multihop.hostB.wlan[0].radio bitErrorRate:vector ETV
attr source bitErrorRate(packetSentToUpper)
attr title "Bit error rate, vector"
vector 70 Multihop.hostB.udp packetReceived:vector(packetBytes) ETV
attr interpolationmode none
attr source packetReceived
attr title "packets received, vector(packetBytes)"
vector 71 Multihop.hostB.udp passedUpPk:vector(count) ETV
attr interpolationmode none
attr source packetSentToUpper
attr title "packets passed up, vector(count)"
vector 72 Multihop.hostB.udp packetSent:vector(packetBytes) ETV
attr interpolationmode none
attr source packetSent
attr title "packets sent, vector(packetBytes)"
vector 73 Multihop.hostB.wlan[0].mac.queue packetPushed:vector(packetBytes) ETV
attr interpolationmode none
attr title "packet pushed, vector(packetBytes)"
vector 74 Multihop.hostB.wlan[0].mac.queue queueLength:vector ETV
attr interpolationmode sample-hold
attr source "count(packetPushed) - count(packetPopped) - count(packetRemoved) - count(packetDropped)"
attr title "queue length, vector"
vector 75 Multihop.hostB.wlan[0].mac.queue packetPopped:vector(packetBytes) ETV
attr interpolationmode none
attr title "packet popped, vector(packetBytes)"
vector 76 Multihop.hostB.wlan[0].mac.queue queueingTime:vector ETV
attr interpolationmode none
attr source queueingTime(packetPopped)
attr title "queueing times, vector"
attr unit s
vector 77 Multihop.hostF.wlan[0].mac packetDropIncorrectlyReceived:vector(packetBytes) ETV
attr interpolationmode none
attr source packetDropReasonIsIncorrectlyReceived(packetDropped)
attr title "packet drop: incorrectly received, vector(packetBytes)"
vector 78 Multihop.hostG.wlan[0].mac packetDropIncorrectlyReceived:vector(packetBytes) ETV
attr interpolationmode none
attr source packetDropReasonIsIncorrectlyReceived(packetDropped)
attr title "packet drop: incorrectly received, vector(packetBytes)"
vector 79 Multihop.hostB.wlan[0].radio transmissionState:vector ETV
attr interpolationmode sample-hold
attr source transmissionStateChanged
attr title "Radio transmission state, vector"
vector 80 Multihop.hostB.wlan[0].mac packetDropNotAddressedToUs:vector(packetBytes) ETV
attr interpolationmode none
attr source packetDropReasonIsNotAddressedToUs(packetDropped)
attr title "packet drop: not addressed to us, vector(packetBytes)"
vector 81 Multihop.hostF.wlan[0].mac packetDropNotAddressedToUs:vector(packetBytes) ETV
attr interpolationmode none
attr source packetDropReasonIsNotAddressedToUs(packetDropped)
attr title "packet drop: not addressed to us, vector(packetBytes)"
vector 82 Multihop.hostG.wlan[0].mac packetDropNotAddressedToUs:vector(packetBytes) ETV
attr interpolationmode none
attr source packetDropReasonIsNotAddressedToUs(packetDropped)
attr title "packet drop: not addressed to us, vector(packetBytes)"
vector 83 Multihop.hostC.wlan[0].mac packetDropNotAddressedToUs:vector(packetBytes) ETV
attr interpolationmode none
attr source packetDropReasonIsNotAddressedToUs(packetDropped)
attr title "packet drop: not addressed to us, vector(packetBytes)"
vector 84 Multihop.hostH.wlan[0].mac packetDropNotAddressedToUs:vector(packetBytes) ETV
attr interpolationmode none
attr source packetDropReasonIsNotAddressedToUs(packetDropped)
attr title "packet drop: not addressed to us, vector(packetBytes)"
vector 85 Multihop.hostA.wlan[0].mac packetDropNotAddressedToUs:vector(packetBytes) ETV
attr interpolationmode none
attr source packetDropReasonIsNotAddressedToUs(packetDropped)
attr title "packet drop: not addressed to us, vector(packetBytes)"
vector 86 Multihop.hostD.wlan[0].mac packetDropIncorrectlyReceived:vector(packetBytes) ETV
attr interpolationmode none
attr source packetDropReasonIsIncorrectlyReceived(packetDropped)
attr title "packet drop: incorrectly received, vector(packetBytes)"
vector 87 Multihop.hostB.app[0] packetReceived:vector(packetBytes) ETV
attr interpolationmode none
attr source packetReceived
attr title "packets received, vector(packetBytes)"
vector 88 Multihop.hostB.app[0] throughput:vector ETV
attr source throughput(packetReceived)
attr title "throughput, vector"
attr unit bps
vector 89 Multihop.hostB.app[0] endToEndDelay:vector ETV
attr interpolationmode none
attr source dataAge(packetReceived)
attr title "end-to-end delay, vector"
attr unit s
vector 90 Multihop.hostB.app[0] rcvdPkSeqNo:vector ETV
attr interpolationmode none
attr source appPkSeqNo(packetReceived)
attr title "received packet sequence number, vector"
vector 91 Multihop logPacketReceived:vector(count) ETV
attr source hostB.app[0].packetReceived
vector 92 Multihop.hostD.wlan[0].mac packetDropNotAddressedToUs:vector(packetBytes) ETV
attr interpolationmode none
attr source packetDropReasonIsNotAddressedToUs(packetDropped)
attr title "packet drop: not addressed to us, vector(packetBytes)"
vector 93 Multihop.hostA.wlan[0].mac packetDropRetryLimitReached:vector(packetBytes) ETV
attr interpolationmode none
attr source packetDropReasonIsRetryLimitReached(packetDropped)
attr title "packet drop: retry limit reached, vector(packetBytes)"
vector 94 Multihop.hostC.wlan[0].mac packetDropIncorrectlyReceived:vector(packetBytes) ETV
attr interpolationmode none
attr source packetDropReasonIsIncorrectlyReceived(packetDropped)
attr title "packet drop: incorrectly received, vector(packetBytes)"
vector 95 Multihop.hostG.udp packetSent:vector(packetBytes) ETV
attr interpolationmode none
attr source packetSent
attr title "packets sent, vector(packetBytes)"
vector 96 Multihop.hostG.wlan[0].mac.queue packetPushed:vector(packetBytes) ETV
attr interpolationmode none
attr title "packet pushed, vector(packetBytes)"
vector 97 Multihop.hostG.wlan[0].mac.queue queueLength:vector ETV
attr interpolationmode sample-hold
attr source "count(packetPushed) - count(packetPopped) - count(packetRemoved) - count(packetDropped)"
attr title "queue length, vector"
vector 98 Multihop.hostG.wlan[0].mac.queue packetPopped:vector(packetBytes) ETV
attr interpolationmode none
attr title "packet popped, vector(packetBytes)"
vector 99 Multihop.hostG.wlan[0].mac.queue queueingTime:vector ETV
attr interpolationmode none
attr source queueingTime(packetPopped)
attr title "queueing times, vector"
attr unit s
vector 100 Multihop.hostG.wlan[0].radio transmissionState:vector ETV
attr interpolationmode sample-hold
attr source transmissionStateChanged
attr title "Radio transmission state, vector"
vector 101 Multihop.hostE.wlan[0].mac packetDropNotAddressedToUs:vector(packetBytes) ETV
attr interpolationmode none
attr source packetDropReasonIsNotAddressedToUs(packetDropped)
attr title "packet drop: not addressed to us, vector(packetBytes)"
vector 102 Multihop.hostH.wlan[0].mac packetDropIncorrectlyReceived:vector(packetBytes) ETV
attr interpolationmode none
attr source packetDropReasonIsIncorrectlyReceived(packetDropped)
attr title "packet drop: incorrectly received, vector(packetBytes)"
vector 103 Multihop.hostG.wlan[0].mac packetDropRetryLimitReached:vector(packetBytes) ETV
attr interpolationmode none
attr source packetDropReasonIsRetryLimitReached(packetDropped)
attr title "packet drop: retry limit reached, vector(packetBytes)"
vector 104 Multihop.hostE.wlan[0].mac packetDropIncorrectlyReceived:vector(packetBytes) ETV
attr interpolationmode none
attr source packetDropReasonIsIncorrectlyReceived(packetDropped)
attr title "packet drop: incorrectly received, vector(packetBytes)"
vector 105 Multihop.hostA.app[0] throughput:vector ETV
attr source throughput(packetReceived)
attr title "throughput, vector"
attr unit bps
vector 106 Multihop.hostA.app[1] throughput:vector ETV
attr source throughput(packetReceived)
attr title "throughput, vector"
attr unit bps
0	0	0	0
0	0	0	0
0	0	0	2
0	30	0.016707932747	3
0	39	0.017365932747	2
0	317	0.335152563572	3
0	326	0.335810563572	2
0	698	0.349425987372	3
0	707	0.349643987372	2
0	718	0.350293987372	3
0	747	0.358759987372	2
0	834	0.36795632232	3
0	866	0.37642232232	2
0	911	0.37721232232	3
0	930	0.38567832232	2
0	965	0.386278657268	3
0	977	0.394744657268	2
0	1012	0.395024992216	3
0	1043	0.403490992216	2
0	1129	0.412547327164	3
0	1162	0.421013327164	2
0	1237	0.430849995676	3
0	1253	0.439315995676	2
0	1288	0.439636330624	3
0	1298	0.448102330624	2
0	1372	0.457378665572	3
0	1410	0.465844665572	2
0	1446	0.466274665572	3
0	1471	0.474740665572	2
0	1506	0.47524100052	3
0	1526	0.48370700052	2
0	1565	0.484467335468	3
0	1580	0.492933335468	2
0	1658	0.502309670416	3
0	1696	0.510775670416	2
0	1743	0.512345670416	3
0	1758	0.520811670416	2
0	1793	0.521252005364	3
0	1812	0.529718005364	2
0	1847	0.530498340312	3
0	1870	0.538964340312	2
0	1906	0.53972467526	3
0	1924	0.54819067526	2
0	1959	0.548911010208	3
0	1974	0.557377010208	2
0	2052	0.566293345156	3
0	2094	0.574759345156	2
0	2105	0.575169345156	3
0	2154	0.583635345156	2
0	2166	0.584045345156	3
0	2177	0.592511345156	2
0	2212	0.592991680104	3
0	2226	0.601457680104	2
0	2261	0.601798015052	3
0	2284	0.610264015052	2
0	2319	0.61054435	3
0	2338	0.61901035	2
0	2373	0.619730684948	3
0	2388	0.628196684948	2
0	2424	0.629057019896	3
0	2438	0.637523019896	2
0	2473	0.637963354844	3
0	2488	0.646429354844	2
0	2523	0.647089689792	3
0	2542	0.655555689792	2
0	2577	0.65611602474	3
0	2604	0.66458202474	2
0	2639	0.665042359688	3
0	2654	0.673508359688	2
0	2689	0.674068694636	3
0	2716	0.682534694636	2
0	2751	0.683075029584	3
0	2770	0.691541029584	2
0	2805	0.691841364532	3
0	2816	0.700307364532	2
0	2851	0.70082769948	3
0	2886	0.70929369948	2
0	2921	0.710174034428	3
0	2936	0.718640034428	2
0	2971	0.719240369376	3
0	2986	0.727706369376	2
0	3021	0.728566704324	3
0	3036	0.737032704324	2
0	3071	0.737633039272	3
0	3086	0.746099039272	2
0	3121	0.74691937422	3
0	3140	0.75538537422	2
0	3176	0.756165709168	3
0	3190	0.764631709168	2
0	3226	0.765472044116	3
0	3240	0.773938044116	2
0	3276	0.774818379064	3
0	3286	0.783284379064	2
0	3374	0.792660714012	3
0	3398	0.801126714012	2
0	3474	0.809843382524	3
0	3487	0.818309382524	2
0	3522	0.819009717472	3
0	3536	0.827475717472	2
0	3571	0.82805605242	3
0	3598	0.83652205242	2
0	3633	0.836922387368	3
0	3652	0.845388387368	2
0	3744	0.854564722316	3
0	3772	0.863030722316	2
0	3845	0.872087390828	3
0	3866	0.880553390828	2
0	3961	0.889969725776	3
0	3985	0.898435725776	2
0	4138	0.916948394288	3
0	4161	0.925414394288	2
0	4256	0.9349310628	3
0	4281	0.9433970628	2
0	4380	0.952673731312	3
0	4421	0.961139731312	2
0	4576	0.987792399824	3
0	4637	0.996258399824	2
0	4902	1.038596071796	3
0	4957	1.047062071796	2
0	5239	1.095909078024	3
0	5284	1.104375078024	2
0	5330	1.113323412972	3
0	5371	1.121789412972	2
0	5417	1.122539412972	3
0	5441	1.131005412972	2
0	5480	1.13166574792	3
0	5498	1.14013174792	2
0	5533	1.140852082868	3
0	5547	1.149318082868	2
0	5582	1.149938417816	3
0	5599	1.158404417816	2
0	5634	1.159164752764	3
0	5648	1.167630752764	2
0	5735	1.176827087712	3
0	5761	1.185293087712	2
0	5797	1.185723087712	3
0	5821	1.194189087712	2
0	5892	1.20328542266	3
0	5926	1.21175142266	2
0	5972	1.21290142266	3
0	5986	1.22136742266	2
0	6063	1.230383757608	3
0	6106	1.238849757608	2
0	6152	1.240179757608	3
0	6163	1.248645757608	2
0	6199	1.249126092556	3
0	6213	1.257592092556	2
0	6289	1.266608427504	3
0	6332	1.275074427504	2
0	6381	1.275484427504	3
0	6404	1.283950427504	2
0	6439	1.284230762452	3
0	6457	1.292696762452	2
0	6498	1.2935570974	3
0	6512	1.3020230974	2
0	6548	1.302743432348	3
0	6567	1.311209432348	2
0	6602	1.311549767296	3
0	6616	1.320015767296	2
0	6651	1.320436102244	3
0	6668	1.328902102244	2
0	6703	1.329722437192	3
0	6714	1.338188437192	2
0	6749	1.33868877214	3
0	6769	1.34715477214	2
0	6871	1.356511107088	3
0	6906	1.364977107088	2
0	6969	1.374045442036	3
0	7010	1.382511442036	2
0	7170	1.40131477906	3
0	7219	1.40978077906	2
0	7357	1.42877578252	3
0	7417	1.43724178252	2
0	7507	1.454503451724	3
0	7561	1.462969451724	2
0	7875	1.517369792208	3
0	7923	1.525835792208	2
0	8110	1.560426795668	3
0	8155	1.568892795668	2
0	8236	1.586801130616	3
0	8284	1.595267130616	2
0	8332	1.603915465564	3
0	8374	1.612381465564	2
0	8385	1.612851465564	3
0	8436	1.621317465564	2
0	8581	1.640552469024	3
0	8645	1.649018469024	2
0	8658	1.651748469024	3
0	8703	1.660214469024	2
0	8779	1.672382803972	3
0	8824	1.680848803972	2
0	9108	1.726733144456	3
0	9168	1.735199144456	2
0	9285	1.75826081366	3
0	9340	1.76672681366	2
0	9488	1.792904482864	3
0	9533	1.801370482864	2
0	9601	1.810738817812	3
0	9638	1.819204817812	2
0	9711	1.82861315276	3
0	9741	1.83707915276	2
0	9880	1.856571821272	3
0	9933	1.865037821272	2
0	10076	1.886592824732	3
0	10137	1.895058824732	2
0	10151	1.900708824732	3
0	10205	1.909174824732	2
0	10388	1.936896496704	3
0	10446	1.945362496704	2
0	10545	1.968924165908	3
0	10592	1.977390165908	2
0	10674	1.989698500856	3
0	10719	1.998164500856	2
0	10731	1.998634500856	3
0	10749	2.007100500856	2
0	10879	2.024803504316	3
0	10922	2.033269504316	2
0	10969	2.034079504316	3
0	10989	2.042545504316	2
0	11035	2.042995504316	3
0	11056	2.051461504316	2
0	11091	2.051861839264	3
0	11103	2.060327839264	2
0	11141	2.060728174212	3
0	11161	2.069194174212	2
0	11258	2.07823050916	3
0	11285	2.08669650916	2
0	11334	2.08746650916	3
0	11351	2.09593250916	2
0	11425	2.104908844108	3
0	11465	2.113374844108	2
0	11511	2.114024844108	3
0	11525	2.122490844108	2
0	11560	2.122871179056	3
0	11575	2.131337179056	2
0	11645	2.140753514004	3
0	11688	2.149219514004	2
0	11734	2.149569514004	3
0	11748	2.158035514004	2
0	11783	2.158455848952	3
0	11798	2.166921848952	2
0	11833	2.1673021839	3
0	11856	2.1757681839	2
0	11891	2.176388518848	3
0	11905	2.184854518848	2
0	11940	2.185254853796	3
0	11954	2.193720853796	2
0	11989	2.194321188744	3
0	12003	2.202787188744	2
0	12038	2.203527523692	3
0	12052	2.211993523692	2
0	12088	2.21283385864	3
0	12098	2.22129985864	2
0	12171	2.230156193588	3
0	12208	2.238622193588	2
0	12254	2.240012193588	3
0	12265	2.248478193588	2
0	12301	2.248858528536	3
0	12321	2.257324528536	2
0	12356	2.258024863484	3
0	12370	2.266490863484	2
0	12405	2.267011198432	3
0	12428	2.275477198432	2
0	12463	2.27589753338	3
0	12474	2.28436353338	2
0	12547	2.293759868328	3
0	12590	2.302225868328	2
0	12666	2.31164253684	3
0	12684	2.32010853684	2
0	12719	2.320428871788	3
0	12729	2.328894871788	2
0	12764	2.329615206736	3
0	12781	2.338081206736	2
0	12817	2.338901541684	3
0	12839	2.347367541684	2
0	12874	2.347807876632	3
0	12888	2.356273876632	2
0	12926	2.35663421158	3
0	12946	2.36510021158	2
0	12981	2.365860546528	3
0	12992	2.374326546528	2
0	13027	2.374766881476	3
0	13038	2.383232881476	2
0	13073	2.383953216424	3
0	13090	2.392419216424	2
0	13125	2.393099551372	3
0	13145	2.401565551372	2
0	13180	2.40194588632	3
0	13194	2.41041188632	2
0	13229	2.410872221268	3
0	13240	2.419338221268	2
0	13275	2.419778556216	3
0	13295	2.428244556216	2
0	13330	2.429124891164	3
0	13344	2.437590891164	2
0	13380	2.438471226112	3
0	13396	2.446937226112	2
0	13434	2.44753756106	3
0	13445	2.45600356106	2
0	13480	2.456863896008	3
0	13491	2.465329896008	2
0	13527	2.466170230956	3
0	13537	2.474636230956	2
0	13572	2.474936565904	3
0	13586	2.483402565904	2
0	13621	2.483682900852	3
0	13632	2.492148900852	2
0	13667	2.4928892358	3
0	13678	2.5013552358	2
0	13713	2.501735570748	3
0	13724	2.510201570748	2
0	13759	2.510781905696	3
0	13785	2.519247905696	2
0	13820	2.519868240644	3
0	13843	2.528334240644	2
0	13878	2.529054575592	3
0	13895	2.537520575592	2
0	13930	2.53794091054	3
0	13950	2.54640691054	2
0	13985	2.546687245488	3
0	13999	2.555153245488	2
0	14034	2.555893580436	3
0	14051	2.564359580436	2
0	14086	2.564839915384	3
0	14105	2.573305915384	2
0	14140	2.573666250332	3
0	14157	2.582132250332	2
0	14192	2.58251258528	3
0	14212	2.59097858528	2
0	14247	2.591658920228	3
0	14264	2.600124920228	2
0	14302	2.600745255176	3
0	14316	2.609211255176	2
0	14351	2.609551590124	3
0	14365	2.618017590124	2
0	14400	2.618557925072	3
0	14420	2.627023925072	2
0	14455	2.62772426002	3
0	14472	2.63619026002	2
0	14510	2.636810594968	3
0	14524	2.645276594968	2
0	14559	2.646016929916	3
0	14576	2.654482929916	2
0	14611	2.654983264864	3
0	14628	2.663449264864	2
0	14663	2.664049599812	3
0	14680	2.672515599812	2
0	14715	2.67341593476	3
0	14732	2.68188193476	2
0	14767	2.682422269708	3
0	14784	2.690888269708	2
0	14819	2.691688604656	3
0	14839	2.700154604656	2
0	14874	2.700534939604	3
0	14891	2.709000939604	2
0	14926	2.709341274552	3
0	14943	2.717807274552	2
0	14978	2.7184676095	3
0	14989	2.7269336095	2
0	15024	2.727333944448	3
0	15041	2.735799944448	2
0	15076	2.736420279396	3
0	15090	2.744886279396	2
0	15125	2.745426614344	3
0	15139	2.753892614344	2
0	15174	2.754652949292	3
0	15191	2.763118949292	2
0	15226	2.76381928424	3
0	15240	2.77228528424	2
0	15275	2.773065619188	3
0	15298	2.781531619188	2
0	15333	2.781911954136	3
0	15353	2.790377954136	2
0	15388	2.790978289084	3
0	15408	2.799444289084	2
0	15443	2.800084624032	3
0	15457	2.808550624032	2
0	15492	2.80883095898	3
0	15512	2.81729695898	2
0	15547	2.818137293928	3
0	15570	2.826603293928	2
0	15606	2.827303628876	3
0	15625	2.835769628876	2
0	15660	2.836289963824	3
0	15674	2.844755963824	2
0	15709	2.845176298772	3
0	15723	2.853642298772	2
0	15761	2.85394263372	3
0	15772	2.86240863372	2
0	15807	2.863288968668	3
0	15821	2.871754968668	2
0	15856	2.872355303616	3
0	15873	2.880821303616	2
0	15908	2.881261638564	3
0	15922	2.889727638564	2
0	15957	2.890207973512	3
0	15980	2.898673973512	2
0	16015	2.89905430846	3
0	16032	2.90752030846	2
0	16067	2.908180643408	3
0	16081	2.916646643408	2
0	16116	2.917186978356	3
0	16130	2.925652978356	2
0	16203	2.934629313304	3
0	16240	2.943095313304	2
0	16251	2.943445313304	3
0	16305	2.951911313304	2
0	16320	2.952701313304	3
0	16334	2.961167313304	2
0	16370	2.962007648252	3
0	16379	2.970473648252	2
0	16414	2.9708939832	3
0	16431	2.9793599832	2
0	16466	2.980120318148	3
0	16486	2.988586318148	2
0	16521	2.989006653096	3
0	16538	2.997472653096	2
0	16573	2.998292988044	3
0	16595	3.006758988044	2
0	16634	3.007619322992	3
0	16644	3.016085322992	2
0	16679	3.01662565794	3
0	16691	3.02509165794	2
0	16726	3.025971992888	3
0	16746	3.034437992888	2
0	16781	3.034738327836	3
0	16795	3.043204327836	2
0	16830	3.043944662784	3
0	16847	3.052410662784	2
0	16882	3.053010997732	3
0	16896	3.061476997732	2
0	16931	3.06209733268	3
0	16954	3.07056333268	2
0	16989	3.070883667628	3
0	17009	3.079349667628	2
0	17044	3.079630002576	3
0	17055	3.088096002576	2
0	17090	3.088576337524	3
0	17116	3.097042337524	2
0	17151	3.097522672472	3
0	17174	3.105988672472	2
0	17209	3.10680900742	3
0	17220	3.11527500742	2
0	17256	3.116155342368	3
0	17272	3.124621342368	2
0	17307	3.125041677316	3
0	17321	3.133507677316	2
0	17359	3.133788012264	3
0	17376	3.142254012264	2
0	17411	3.142954347212	3
0	17428	3.151420347212	2
0	17463	3.15204068216	3
0	17474	3.16050668216	2
0	17509	3.160987017108	3
0	17526	3.169453017108	2
0	17561	3.170313352056	3
0	17575	3.178779352056	2
0	17610	3.179379687004	3
0	17627	3.187845687004	2
0	17662	3.188206021952	3
0	17676	3.196672021952	2
0	17714	3.1973923569	3
0	17740	3.2058583569	2
0	17775	3.206618691848	3
0	17795	3.215084691848	2
0	17837	3.215965026796	3
0	17853	3.224431026796	2
0	17888	3.224851361744	3
0	17899	3.233317361744	2
0	17934	3.233837696692	3
0	17951	3.242303696692	2
0	17989	3.24316403164	3
0	18003	3.25163003164	2
0	18039	3.252470366588	3
0	18052	3.260936366588	2
0	18087	3.261516701536	3
0	18098	3.269982701536	2
0	18139	3.270843036484	3
0	18156	3.279309036484	2
0	18191	3.279909371432	3
0	18205	3.288375371432	2
0	18240	3.28873570638	3
0	18260	3.29720170638	2
0	18295	3.297542041328	3
0	18309	3.306008041328	2
0	18344	3.306628376276	3
0	18358	3.315094376276	2
0	18393	3.315734711224	3
0	18410	3.324200711224	2
0	18445	3.324601046172	3
0	18465	3.333067046172	2
0	18500	3.33394738112	3
0	18528	3.34241338112	2
0	18615	3.351789716068	3
0	18635	3.360255716068	2
0	18728	3.36919238458	3
0	18769	3.37765838458	2
0	18938	3.397181721604	3
0	18999	3.405647721604	2
0	19015	3.408937721604	3
0	19066	3.417403721604	2
0	19244	3.444865393576	3
0	19302	3.453331393576	2
0	19429	3.47685306278	3
0	19487	3.48531906278	2
0	19693	3.524083400496	3
0	19751	3.532549400496	2
0	20015	3.575689738212	3
0	20063	3.584155738212	2
0	20115	3.59316407316	3
0	20157	3.60163007316	2
0	20203	3.60278007316	3
0	20223	3.61124607316	2
0	20259	3.611826408108	3
0	20273	3.620292408108	2
0	20367	3.629548743056	3
0	20391	3.638014743056	2
0	20468	3.647491411568	3
0	20489	3.655957411568	2
0	20561	3.665313746516	3
0	20601	3.673779746516	2
0	20612	3.674149746516	3
0	20660	3.682615746516	2
0	20672	3.682985746516	3
0	20683	3.691451746516	2
0	20718	3.691752081464	3
0	20737	3.700218081464	2
0	20775	3.701038416412	3
0	20792	3.709504416412	2
0	20827	3.71010475136	3
0	20838	3.71857075136	2
0	20873	3.719171086308	3
0	20887	3.727637086308	2
0	20922	3.728137421256	3
0	20945	3.736603421256	2
0	20980	3.736923756204	3
0	21000	3.745389756204	2
0	21090	3.754766091152	3
0	21110	3.763232091152	2
0	21206	3.772728759664	3
0	21234	3.781194759664	2
0	21415	3.809334096688	3
0	21461	3.817800096688	2
0	21484	3.821010096688	3
0	21532	3.829476096688	2
0	21653	3.852431100148	3
0	21711	3.860897100148	2
0	21823	3.878618769352	3
0	21871	3.887084769352	2
0	22221	3.941245109836	3
0	22238	3.949711109836	2
0	22333	3.959107444784	3
0	22363	3.967573444784	2
0	22465	3.977270113296	3
0	22490	3.985736113296	2
0	22604	3.995892781808	3
0	22660	4.004358781808	2
0	22732	4.014847116756	3
0	22788	4.023313116756	2
0	22974	4.054354788728	3
0	23035	4.062820788728	2
0	23232	4.097617126444	3
0	23280	4.106083126444	2
0	23419	4.130198129904	3
0	23477	4.138664129904	2
0	23966	4.214951141668	3
0	24026	4.223417141668	2
0	24037	4.224047141668	3
0	24100	4.232513141668	2
0	24111	4.233363141668	3
0	24156	4.241829141668	2
0	24289	4.260764145128	3
0	24341	4.269230145128	2
0	24410	4.278698480076	3
0	24471	4.287164480076	2
0	24592	4.31420214928	3
0	24624	4.32266814928	2
0	24850	4.355418154816	3
0	24908	4.363884154816	2
0	24919	4.366534154816	3
0	24980	4.375000154816	2
0	25257	4.419550830248	3
0	25318	4.428016830248	2
0	25329	4.428926830248	3
0	25386	4.437392830248	2
0	25398	4.438422830248	3
0	25464	4.446888830248	2
0	25476	4.448998830248	3
0	25530	4.457464830248	2
0	25635	4.474899833708	3
0	25669	4.483365833708	2
0	25780	4.49818250222	3
0	25841	4.50664850222	2
0	26099	4.550428839936	3
0	26147	4.558894839936	2
0	26487	4.619265848932	3
0	26542	4.627731848932	2
0	26633	4.639033518136	3
0	26670	4.647499518136	2
0	26706	4.648229518136	3
0	26743	4.656695518136	2
0	26799	4.657325518136	3
0	26838	4.665791518136	2
0	26916	4.675119853084	3
0	26940	4.683585853084	2
0	27056	4.697462521596	3
0	27101	4.705928521596	2
0	27241	4.724623525056	3
0	27255	4.733089525056	2
0	27290	4.733529860004	3
0	27301	4.734219860004	2
0	27323	4.734609860004	3
0	27332	4.735267860004	2
0	27448	4.745164194952	3
0	27458	4.745822194952	2
0	27472	4.746452194952	3
0	27484	4.747110194952	2
0	27498	4.747500194952	3
0	27507	4.748158194952	2
0	32209	5.535689615016	3
0	32218	5.536347615016	2
0	41120	6.82941259441	3
0	41131	6.82963059441	2
0	41165	6.83012059441	3
0	41217	6.83858659441	2
0	41257	6.839333595102	3
0	41267	6.839551595102	2
0	41280	6.840641595102	3
0	41298	6.849107595102	2
0	41376	6.858182595794	3
0	41410	6.866648595794	2
0	41456	6.867698595794	3
0	41472	6.876164595794	2
0	41547	6.885539596486	3
0	41581	6.894005596486	2
0	41621	6.894795596486	3
0	41650	6.903261596486	2
0	41685	6.903860597178	3
0	41705	6.912326597178	2
0	41740	6.91298559787	3
0	41759	6.92145159787	2
0	41794	6.921790598562	3
0	41813	6.930256598562	2
0	41848	6.930655599254	3
0	41867	6.939121599254	2
0	41902	6.939500599946	3
0	41917	6.947966599946	2
0	41952	6.948645600638	3
0	41963	6.957111600638	2
0	42059	6.96632660133	3
0	42083	6.97479260133	2
0	42149	6.975151602022	3
0	42179	6.983617602022	2
0	42215	6.984076602714	3
0	42269	6.992542602714	2
0	42304	6.993161603406	3
0	42339	7.001627603406	2
0	42476	7.01950927261	3
0	42503	7.02797527261	2
0	42573	7.028654273302	3
0	42597	7.037120273302	2
0	42641	7.037570273302	3
0	42663	7.046036273302	2
0	42731	7.046695273994	3
0	42760	7.055161273994	2
0	42796	7.055980274686	3
0	42864	7.064446274686	2
0	42896	7.064965275378	3
0	42958	7.073431275378	2
0	43013	7.07405027607	3
0	43046	7.08251627607	2
0	43135	7.091911276762	3
0	43159	7.100377276762	2
0	43262	7.109452277454	3
0	43302	7.117918277454	2
0	43349	7.118708277454	3
0	43381	7.127174277454	2
0	43491	7.136561280914	3
0	43527	7.145027280914	2
0	43702	7.17176761863	3
0	43740	7.18023361863	2
0	43798	7.18270361863	3
0	43862	7.19116961863	2
0	43877	7.19231961863	3
0	43925	7.20078561863	2
0	44135	7.236841956346	3
0	44163	7.245307956346	2
0	44219	7.246126957038	3
0	44257	7.254592957038	2
0	44313	7.25517195773	3
0	44347	7.26363795773	2
0	44382	7.263936958422	3
0	44406	7.272402958422	2
0	44490	7.281617959114	3
0	44514	7.290083959114	2
0	44570	7.290482959806	3
0	44599	7.298948959806	2
0	44688	7.308263960498	3
0	44712	7.316729960498	2
0	44803	7.32598662901	3
0	44837	7.33445262901	2
0	44869	7.335311629702	3
0	44920	7.343777629702	2
0	44956	7.344636630394	3
0	44970	7.353102630394	2
0	45005	7.353681631086	3
0	45016	7.362147631086	2
0	45051	7.362426631778	3
0	45066	7.370892631778	2
0	45166	7.38008763247	3
0	45194	7.38855363247	2
0	45319	7.397788633162	3
0	45360	7.406254633162	2
0	45383	7.406644633162	3
0	45411	7.415110633162	2
0	45466	7.415449633854	3
0	45488	7.423915633854	2
0	45602	7.433230634546	3
0	45637	7.441696634546	2
0	45808	7.468096972262	3
0	45846	7.476562972262	2
0	45893	7.477512972262	3
0	45913	7.485978972262	2
0	45994	7.486637972954	3
0	46033	7.495103972954	2
0	46055	7.495513972954	3
0	46084	7.503979972954	2
0	46130	7.504329972954	3
0	46155	7.512795972954	2
0	46266	7.521870973646	3
0	46306	7.530336973646	2
0	46485	7.54888031067	3
0	46528	7.55734631067	2
0	46617	7.566753311362	3
0	46665	7.575219311362	2
0	46742	7.585046312054	3
0	46810	7.593512312054	2
0	46822	7.599102312054	3
0	46889	7.607568312054	2
0	46989	7.625953650462	3
0	47041	7.634419650462	2
0	47569	7.721909330738	3
0	47628	7.730375330738	2
0	47702	7.739165330738	3
0	47762	7.747631330738	2
0	47773	7.748261330738	3
0	47831	7.756727330738	2
0	47843	7.757997330738	3
0	47899	7.766463330738	2
0	47918	7.768033330738	3
0	47982	7.776499330738	2
0	48185	7.80567267745	3
0	48223	7.81413867745	2
0	48449	7.844499015166	3
0	48508	7.852965015166	2
0	48578	7.863555015166	3
0	48632	7.872021015166	2
0	48775	7.89063468437	3
0	48794	7.89910068437	2
0	48831	7.899599685062	3
0	48847	7.908065685062	2
0	48934	7.917160685754	3
0	48957	7.925626685754	2
0	49023	7.926405686446	3
0	49043	7.934871686446	2
0	49134	7.944006687138	3
0	49160	7.952472687138	2
0	49266	7.96156768783	3
0	49305	7.97003368783	2
0	49352	7.97110368783	3
0	49384	7.97956968783	2
0	49451	7.979948688522	3
0	49473	7.988414688522	2
0	49505	7.988833689214	3
0	49554	7.997299689214	2
0	49635	8.006454689906	3
0	49672	8.014920689906	2
0	49718	8.016130689906	3
0	49744	8.024596689906	2
0	49782	8.025415690598	3
0	49791	8.033881690598	2
0	49826	8.03428069129	3
0	49843	8.04274669129	2
0	49878	8.043625691982	3
0	49892	8.052091691982	2
0	49974	8.061306692674	3
0	50004	8.069772692674	2
0	50070	8.070471693366	3
0	50084	8.078937693366	2
0	50162	8.087912694058	3
0	50206	8.096378694058	2
0	50252	8.097108694058	3
0	50269	8.105574694058	2
0	50304	8.10601369475	3
0	50319	8.11447969475	2
0	50412	8.123814695442	3
0	50438	8.132280695442	2
0	50470	8.132579696134	3
0	50520	8.141045696134	2
0	50555	8.141844696826	3
0	50569	8.150310696826	2
0	50642	8.159265697518	3
0	50685	8.167731697518	2
0	50774	8.17776836603	3
0	50819	8.18623436603	2
0	50947	8.205728035234	3
0	51013	8.214194035234	2
0	51026	8.216924035234	3
0	51077	8.225390035234	2
0	51259	8.25549037295	3
0	51320	8.26395637295	2
0	51512	8.294606044922	3
0	51564	8.303072044922	2
0	51910	8.360961719662	3
0	51968	8.369427719662	2
0	52264	8.422896060146	3
0	52321	8.431362060146	2
0	52332	8.432132060146	3
0	52389	8.440598060146	2
0	52401	8.442068060146	3
0	52458	8.450534060146	2
0	52470	8.452984060146	3
0	52531	8.461450060146	2
0	52641	8.47337606845	3
0	52686	8.48184206845	2
0	52885	8.515271737654	3
0	52930	8.523737737654	2
0	53090	8.559167406858	3
0	53141	8.567633406858	2
0	53392	8.612545744574	3
0	53418	8.621011744574	2
0	53474	8.621370745266	3
0	53511	8.629836745266	2
0	53543	8.630195745958	3
0	53595	8.638661745958	2
0	53630	8.63948074665	3
0	53641	8.64794674665	2
0	53717	8.657041747342	3
0	53754	8.665507747342	2
0	53801	8.666937747342	3
0	53811	8.675403747342	2
0	53847	8.675762748034	3
0	53861	8.684228748034	2
0	53896	8.684667748726	3
0	53916	8.693133748726	2
0	53951	8.693812749418	3
0	53965	8.702278749418	2
0	54058	8.71163375011	3
0	54081	8.72009975011	2
0	54149	8.720738750802	3
0	54178	8.729204750802	2
0	54233	8.729983751494	3
0	54259	8.738449751494	2
0	54296	8.738768752186	3
0	54323	8.747234752186	2
0	54376	8.748404752186	3
0	54427	8.756870752186	2
0	54502	8.767857752878	3
0	54556	8.776323752878	2
0	54695	8.795697422082	3
0	54755	8.804163422082	2
0	54767	8.804573422082	3
0	54817	8.813039422082	2
0	55052	8.851815759798	3
0	55113	8.860281759798	2
0	55124	8.860831759798	3
0	55171	8.869297759798	2
0	55247	8.88550476049	3
0	55295	8.89397076049	2
0	55347	8.902857761182	3
0	55386	8.911323761182	2
0	55472	8.921400429694	3
0	55495	8.929866429694	2
0	55565	8.930685430386	3
0	55580	8.939151430386	2
0	55615	8.939690431078	3
0	55627	8.948156431078	2
0	55662	8.94889543177	3
0	55673	8.95736143177	2
0	55775	8.966516432462	3
0	55813	8.974982432462	2
0	55902	8.984449433154	3
0	55947	8.992915433154	2
0	56017	9.003702433846	3
0	56070	9.012168433846	2
0	56206	9.03172210305	3
0	56263	9.04018810305	2
0	56279	9.04567810305	3
0	56330	9.05414410305	2
0	56575	9.091144440766	3
0	56638	9.099610440766	2
0	56695	9.116640440766	3
0	56709	9.125106440766	2
0	56746	9.125625441458	3
0	56767	9.134091441458	2
0	56820	9.135181441458	3
0	56864	9.143647441458	2
0	56878	9.145197441458	3
0	56892	9.153663441458	2
0	56927	9.15406244215	3
0	56939	9.16252844215	2
0	56976	9.163127442842	3
0	56999	9.171593442842	2
0	57106	9.181390111354	3
0	57156	9.189856111354	2
0	57177	9.190626111354	3
0	57211	9.199092111354	2
0	57237	9.203962111354	3
0	57254	9.212428111354	2
0	57328	9.221583112046	3
0	57365	9.230049112046	2
0	57401	9.230479112046	3
0	57428	9.238945112046	2
0	57463	9.239644112738	3
0	57487	9.248110112738	2
0	57522	9.24840911343	3
0	57539	9.25687511343	2
0	57574	9.257494114122	3
0	57600	9.265960114122	2
0	57635	9.266459114814	3
0	57649	9.274925114814	2
0	57686	9.275284115506	3
0	57709	9.283750115506	2
0	57762	9.284860115506	3
0	57810	9.293326115506	2
0	57877	9.302173116198	3
0	57897	9.310639116198	2
0	58030	9.32005578471	3
0	58060	9.32852178471	2
0	58116	9.328920785402	3
0	58137	9.337386785402	2
0	58211	9.346441786094	3
0	58257	9.354907786094	2
0	58352	9.364804454606	3
0	58376	9.373270454606	2
0	58408	9.373549455298	3
0	58452	9.382015455298	2
0	58490	9.38239445599	3
0	58507	9.39086045599	2
0	58542	9.391459456682	3
0	58556	9.399925456682	2
0	58655	9.409320457374	3
0	58709	9.417786457374	2
0	58783	9.427653458066	3
0	58830	9.436119458066	2
0	58943	9.45429312727	3
0	58970	9.46275912727	2
0	59037	9.463118127962	3
0	59067	9.471584127962	2
0	59197	9.480839128654	3
0	59222	9.489305128654	2
0	59254	9.489764129346	3
0	59317	9.498230129346	2
0	59349	9.499029130038	3
0	59409	9.507495130038	2
0	59441	9.50781413073	3
0	59485	9.51628013073	2
0	59558	9.525395131422	3
0	59598	9.533861131422	2
0	59804	9.560631136958	3
0	59830	9.569097136958	2
0	59921	9.57803213765	3
0	59950	9.58649813765	2
0	59982	9.586797138342	3
0	60035	9.595263138342	2
0	60067	9.595542139034	3
0	60124	9.604008139034	2
0	60156	9.604507139726	3
0	60200	9.612973139726	2
0	60235	9.613452140418	3
0	60252	9.621918140418	2
0	60290	9.62271714111	3
0	60307	9.63118314111	2
0	60391	9.640318141802	3
0	60417	9.648784141802	2
0	60480	9.649583142494	3
0	60500	9.658049142494	2
0	60580	9.667124143186	3
0	60620	9.675590143186	2
0	60701	9.685546811698	3
0	60739	9.694012811698	2
0	60882	9.712876148722	3
0	60925	9.721342148722	2
0	61036	9.732038817234	3
0	61090	9.740504817234	2
0	61193	9.757347820694	3
0	61230	9.765813820694	2
0	61504	9.80834382623	3
0	61568	9.81680982623	2
0	61738	9.83938583315	3
0	61796	9.84785183315	2
0	61922	9.87209483661	3
0	61973	9.88056083661	2
0	62024	9.889467837302	3
0	62066	9.897933837302	2
0	62164	9.907730505814	3
0	62194	9.916196505814	2
0	62240	9.916515506506	3
0	62273	9.924981506506	2
0	62363	9.934116507198	3
0	62389	9.942582507198	2
0	62455	9.94334150789	3
0	62469	9.95180750789	2
0	62549	9.961102508582	3
0	62586	9.969568508582	2
0	62673	9.978765177094	3
0	62722	9.987231177094	2
0	62867	10.006684846298	3
0	62921	10.015150846298	2
0	63306	10.071089852526	3
0	63370	10.079555852526	2
0	63384	10.086685852526	3
0	63445	10.095151852526	2
0	63621	10.118911859446	3
0	63679	10.127377859446	2
0	63693	10.129427859446	3
0	63747	10.137893859446	2
0	63863	10.162340860138	3
0	63892	10.170806860138	2
0	63976	10.18020186083	3
0	63999	10.18866786083	2
0	64067	10.189106861522	3
0	64094	10.197572861522	2
0	64126	10.198051862214	3
0	64172	10.206517862214	2
0	64303	10.224239531418	3
0	64337	10.232705531418	2
0	64394	10.234315531418	3
0	64445	10.242781531418	2
0	64568	10.261995200622	3
0	64618	10.270461200622	2
0	64640	10.275211200622	3
0	64688	10.283677200622	2
0	64699	10.288487200622	3
0	64713	10.296953200622	2
0	64787	10.306008201314	3
0	64833	10.314474201314	2
0	64879	10.315164201314	3
0	64893	10.323630201314	2
0	64928	10.324309202006	3
0	64946	10.332775202006	2
0	64981	10.333074202698	3
0	64992	10.341540202698	2
0	65027	10.34185920339	3
0	65038	10.35032520339	2
0	65117	10.359600204082	3
0	65147	10.368066204082	2
0	65215	10.368765204774	3
0	65235	10.377231204774	2
0	65291	10.378070205466	3
0	65316	10.386536205466	2
0	65390	10.395511206158	3
0	65427	10.403977206158	2
0	65522	10.41385387467	3
0	65549	10.42231987467	2
0	65615	10.422878875362	3
0	65629	10.431344875362	2
0	65666	10.431703876054	3
0	65699	10.440169876054	2
0	65759	10.441519876054	3
0	65815	10.449985876054	2
0	66105	10.495479550794	3
0	66152	10.503945550794	2
0	66174	10.507295550794	3
0	66238	10.515761550794	2
0	66249	10.516591550794	3
0	66303	10.525057550794	2
0	66400	10.54714122415	3
0	66460	10.55560722415	2
0	66666	10.588728896122	3
0	66711	10.597194896122	2
0	66725	10.603824896122	3
0	66742	10.612290896122	2
0	66828	10.621485896814	3
0	66858	10.629951896814	2
0	66890	10.630270897506	3
0	66940	10.638736897506	2
0	67019	10.647811898198	3
0	67046	10.656277898198	2
0	67078	10.65675689889	3
0	67131	10.66522289889	2
0	67207	10.674517899582	3
0	67253	10.682983899582	2
0	67399	10.701427236606	3
0	67435	10.709893236606	2
0	67493	10.710272237298	3
0	67524	10.718738237298	2
0	67557	10.720328237298	3
0	67624	10.728794237298	2
0	67638	10.731264237298	3
0	67686	10.739730237298	2
0	67759	10.75169723799	3
0	67810	10.76016323799	2
0	67878	10.771230238682	3
0	67935	10.779696238682	2
0	67957	10.793006238682	3
0	67966	10.801472238682	2
0	68001	10.802091239374	3
0	68022	10.810557239374	2
0	68116	10.819752240066	3
0	68146	10.828218240066	2
0	68278	10.837553240758	3
0	68300	10.846019240758	2
0	68332	10.84629824145	3
0	68395	10.85476424145	2
0	68427	10.855503242142	3
0	68474	10.863969242142	2
0	68509	10.864368242834	3
0	68520	10.872834242834	2
0	68590	10.881889243526	3
0	68630	10.890355243526	2
0	68735	10.900431912038	3
0	68758	10.908897912038	2
0	68884	10.91831291273	3
0	68915	10.92677891273	2
0	68971	10.927417913422	3
0	69005	10.935883913422	2
0	69037	10.936182914114	3
0	69094	10.944648914114	2
0	69173	10.953783914806	3
0	69203	10.962249914806	2
0	69259	10.962888915498	3
0	69280	10.971354915498	2
0	69355	10.98036991619	3
0	69395	10.98883591619	2
0	69441	10.98966591619	3
0	69461	10.99813191619	2
0	69561	11.007406916882	3
0	69588	11.015872916882	2
0	69654	11.016591917574	3
0	69668	11.025057917574	2
0	69759	11.034432918266	3
0	69785	11.042898918266	2
0	69890	11.051913918958	3
0	69941	11.060379918958	2
0	70015	11.06973658747	3
0	70040	11.07820258747	2
0	70072	11.078821588162	3
0	70125	11.087287588162	2
0	70157	11.087666588854	3
0	70204	11.096132588854	2
0	70239	11.096691589546	3
0	70253	11.105157589546	2
0	70288	11.106036590238	3
0	70311	11.114502590238	2
0	70346	11.11496159093	3
0	70360	11.12342759093	2
0	70395	11.124146591622	3
0	70406	11.132612591622	2
0	70441	11.132991592314	3
0	70464	11.141457592314	2
0	70499	11.142296593006	3
0	70513	11.150762593006	2
0	70592	11.159857593698	3
0	70632	11.168323593698	2
0	70681	11.169493593698	3
0	70695	11.177959593698	2
0	70734	11.17879859439	3
0	70748	11.18726459439	2
0	70783	11.187543595082	3
0	70797	11.196009595082	2
0	70832	11.196388595774	3
0	70843	11.204854595774	2
0	70878	11.205513596466	3
0	70895	11.213979596466	2
0	70930	11.214658597158	3
0	70947	11.223124597158	2
0	70982	11.22364359785	3
0	70999	11.23210959785	2
0	71037	11.232788598542	3
0	71060	11.241254598542	2
0	71095	11.241673599234	3
0	71109	11.250139599234	2
0	71144	11.250598599926	3
0	71161	11.259064599926	2
0	71196	11.259343600618	3
0	71213	11.267809600618	2
0	71248	11.26840860131	3
0	71262	11.27687460131	2
0	71297	11.277733602002	3
0	71311	11.286199602002	2
0	71396	11.295494602694	3
0	71439	11.303960602694	2
0	71485	11.304590602694	3
0	71496	11.313056602694	2
0	71531	11.313435603386	3
0	71558	11.321901603386	2
0	71596	11.322540604078	3
0	71610	11.331006604078	2
0	71645	11.33146560477	3
0	71659	11.33993160477	2
0	71694	11.340730605462	3
0	71711	11.349196605462	2
0	71746	11.349695606154	3
0	71757	11.358161606154	2
0	71792	11.358580606846	3
0	71809	11.367046606846	2
0	71847	11.367325607538	3
0	71864	11.375791607538	2
0	71899	11.37637060823	3
0	71919	11.38483660823	2
0	71954	11.385135608922	3
0	71974	11.393601608922	2
0	72009	11.394340609614	3
0	72032	11.402806609614	2
0	72067	11.403445610306	3
0	72087	11.411911610306	2
0	72122	11.412330610998	3
0	72139	11.420796610998	2
0	72174	11.42111561169	3
0	72188	11.42958161169	2
0	72223	11.430060612382	3
0	72240	11.438526612382	2
0	72275	11.438925613074	3
0	72292	11.447391613074	2
0	72327	11.447970613766	3
0	72344	11.456436613766	2
0	72379	11.457175614458	3
0	72396	11.465641614458	2
0	72431	11.46634061515	3
0	72445	11.47480661515	2
0	72480	11.475565615842	3
0	72503	11.484031615842	2
0	72539	11.484870616534	3
0	72552	11.493336616534	2
0	72587	11.493755617226	3
0	72607	11.502221617226	2
0	72642	11.502820617918	3
0	72653	11.511286617918	2
0	72688	11.51206561861	3
0	72699	11.52053161861	2
0	72735	11.521430619302	3
0	72754	11.529896619302	2
0	72790	11.530675619994	3
0	72803	11.539141619994	2
0	72839	11.539980620686	3
0	72855	11.548446620686	2
0	72986	11.56636828989	3
0	73026	11.57483428989	2
0	73131	11.584730958402	3
0	73179	11.593196958402	2
0	73319	11.611970627606	3
0	73374	11.620436627606	2
0	73390	11.624146627606	3
0	73445	11.632612627606	2
0	73462	11.635522627606	3
0	73513	11.643988627606	2
0	73748	11.685148965322	3
0	73815	11.693614965322	2
0	74168	11.752746977778	3
0	74222	11.761212977778	2
0	74387	11.79323464975	3
0	74451	11.80170064975	2
0	74462	11.80207064975	3
0	74516	11.81053664975	2
0	74527	11.81120664975	3
0	74585	11.81967264975	2
0	74693	11.831016323106	3
0	74741	11.839482323106	2
0	74920	11.869862660822	3
0	74981	11.878328660822	2
0	74992	11.880658660822	3
0	75062	11.889124660822	2
0	75235	11.913424667742	3
0	75296	11.921890667742	2
0	75477	11.948460339714	3
0	75534	11.956926339714	2
0	75547	11.961056339714	3
0	75595	11.969522339714	2
0	75669	11.978629340406	3
0	75709	11.987095340406	2
0	75785	11.996042341098	3
0	75820	12.004508341098	2
0	75914	12.01378500961	3
0	75942	12.02225100961	2
0	75974	12.022630010302	3
0	76023	12.031096010302	2
0	76058	12.031695010994	3
0	76075	12.040161010994	2
0	76151	12.049496011686	3
0	76188	12.057962011686	2
0	76236	12.059572011686	3
0	76252	12.068038011686	2
0	76292	12.068917012378	3
0	76313	12.077383012378	2
0	76389	12.08659801307	3
0	76426	12.09506401307	2
0	76472	12.09607401307	3
0	76498	12.10454001307	2
0	76534	12.105179013762	3
0	76545	12.113645013762	2
0	76580	12.114204014454	3
0	76597	12.122670014454	2
0	76632	12.123489015146	3
0	76646	12.131955015146	2
0	76681	12.132414015838	3
0	76697	12.140880015838	2
0	76732	12.14175901653	3
0	76749	12.15022501653	2
0	76785	12.150904017222	3
0	76798	12.159370017222	2
0	76834	12.160269017914	3
0	76845	12.168735017914	2
0	76880	12.169034018606	3
0	76901	12.177500018606	2
0	76936	12.178059019298	3
0	76956	12.186525019298	2
0	76991	12.18708401999	3
0	77002	12.19555001999	2
0	77040	12.196449020682	3
0	77051	12.204915020682	2
0	77086	12.205334021374	3
0	77104	12.213800021374	2
0	77139	12.214199022066	3
0	77150	12.222665022066	2
0	77232	12.231720022758	3
0	77265	12.240186022758	2
0	77297	12.24054502345	3
0	77341	12.24901102345	2
0	77434	12.258286024142	3
0	77460	12.266752024142	2
0	77581	12.276067024834	3
0	77609	12.284533024834	2
0	77732	12.293788025526	3
0	77757	12.302254025526	2
0	77789	12.302753026218	3
0	77849	12.311219026218	2
0	77884	12.31155802691	3
0	77950	12.32002402691	2
0	77982	12.320723027602	3
0	78032	12.329189027602	2
0	78067	12.329508028294	3
0	78084	12.337974028294	2
0	78119	12.338633028986	3
0	78139	12.347099028986	2
0	78174	12.347438029678	3
0	78185	12.355904029678	2
0	78220	12.35618303037	3
0	78243	12.36464903037	2
0	78319	12.373664031062	3
0	78353	12.382130031062	2
0	78440	12.391286699574	3
0	78479	12.399752699574	2
0	78561	12.410759700266	3
0	78582	12.419225700266	2
0	78679	12.428542368778	3
0	78704	12.437008368778	2
0	78736	12.43762736947	3
0	78785	12.44609336947	2
0	78823	12.446632370162	3
0	78840	12.455098370162	2
0	78875	12.455637370854	3
0	78892	12.464103370854	2
0	78927	12.464502371546	3
0	78938	12.472968371546	2
0	79044	12.482243372238	3
0	79070	12.490709372238	2
0	79144	12.49963637293	3
0	79178	12.50810237293	2
0	79272	12.517299041442	3
0	79300	12.525765041442	2
0	79398	12.535113709954	3
0	79419	12.543579709954	2
0	79487	12.544378710646	3
0	79509	12.552844710646	2
0	79555	12.553343711338	3
0	79590	12.561809711338	2
0	79625	12.56224871203	3
0	79642	12.57071471203	2
0	79677	12.570993712722	3
0	79694	12.579459712722	2
0	79779	12.588674713414	3
0	79822	12.597140713414	2
0	79871	12.597930713414	3
0	79885	12.606396713414	2
0	79920	12.606995714106	3
0	79938	12.615461714106	2
0	79973	12.616040714798	3
0	79987	12.624506714798	2
0	80022	12.62492571549	3
0	80036	12.63339171549	2
0	80071	12.633830716182	3
0	80085	12.642296716182	2
0	80120	12.642735716874	3
0	80137	12.651201716874	2
0	80172	12.651860717566	3
0	80187	12.660326717566	2
0	80223	12.661225718258	3
0	80236	12.669691718258	2
0	80271	12.67007071895	3
0	80291	12.67853671895	2
0	80326	12.679175719642	3
0	80340	12.687641719642	2
0	80375	12.688420720334	3
0	80386	12.696886720334	2
0	80421	12.697605721026	3
0	80435	12.706071721026	2
0	80470	12.706350721718	3
0	80484	12.714816721718	2
0	80519	12.71515572241	3
0	80539	12.72362172241	2
0	80574	12.724100723102	3
0	80588	12.732566723102	2
0	80667	12.741761723794	3
0	80707	12.750227723794	2
0	80753	12.751097723794	3
0	80773	12.759563723794	2
0	80809	12.760342724486	3
0	80820	12.768808724486	2
0	80855	12.769207725178	3
0	80869	12.777673725178	2
0	80904	12.77849272587	3
0	80927	12.78695872587	2
0	80962	12.787517726562	3
0	80976	12.795983726562	2
0	81014	12.796642727254	3
0	81028	12.805108727254	2
0	81063	12.805407727946	3
0	81074	12.813873727946	2
0	81109	12.814172728638	3
0	81133	12.822638728638	2
0	81168	12.82315772933	3
0	81197	12.83162372933	2
0	81232	12.832462730022	3
0	81243	12.840928730022	2
0	81278	12.841367730714	3
0	81301	12.849833730714	2
0	81336	12.850512731406	3
0	81350	12.858978731406	2
0	81385	12.859377732098	3
0	81396	12.867843732098	2
0	81431	12.86842273279	3
0	81445	12.87688873279	2
0	81480	12.877167733482	3
0	81494	12.885633733482	2
0	81532	12.885912734174	3
0	81543	12.894378734174	2
0	81578	12.895177734866	3
0	81595	12.903643734866	2
0	81630	12.904142735558	3
0	81641	12.912608735558	2
0	81679	12.91310773625	3
0	81696	12.92157373625	2
0	81731	12.921912736942	3
0	81754	12.930378736942	2
0	81789	12.931077737634	3
0	81815	12.939543737634	2
0	81850	12.940162738326	3
0	81864	12.948628738326	2
0	81902	12.949367739018	3
0	81922	12.957833739018	2
0	81958	12.95867273971	3
0	81974	12.96713873971	2
0	82009	12.967437740402	3
0	82020	12.975903740402	2
0	82055	12.976582741094	3
0	82066	12.985048741094	2
0	82101	12.985587741786	3
0	82118	12.994053741786	2
0	82153	12.994792742478	3
0	82178	13.003258742478	2
0	82214	13.00413774317	3
0	82224	13.01260374317	2
0	82259	13.012882743862	3
0	82273	13.021348743862	2
0	82311	13.021907744554	3
0	82325	13.030373744554	2
0	82360	13.030812745246	3
0	82374	13.039278745246	2
0	82409	13.040017745938	3
0	82429	13.048483745938	2
0	82464	13.04896274663	3
0	82478	13.05742874663	2
0	82513	13.058007747322	3
0	82539	13.066473747322	2
0	82574	13.066752748014	3
0	82588	13.075218748014	2
0	82672	13.084613748706	3
0	82704	13.093079748706	2
0	82760	13.093498749398	3
0	82781	13.101964749398	2
0	82867	13.11103975009	3
0	82891	13.11950575009	2
0	82946	13.119784750782	3
0	82967	13.128250750782	2
0	83041	13.137485751474	3
0	83081	13.145951751474	2
0	83189	13.156008419986	3
0	83227	13.164474419986	2
0	83287	13.173461420678	3
0	83325	13.181927420678	2
0	83413	13.19222408919	3
0	83450	13.20069008919	2
0	83496	13.20142008919	3
0	83513	13.20988608919	2
0	83599	13.219161089882	3
0	83626	13.227627089882	2
0	83686	13.228046090574	3
0	83714	13.236512090574	2
0	83746	13.236831091266	3
0	83801	13.245297091266	2
0	83894	13.254572091958	3
0	83917	13.263038091958	2
0	83983	13.26377709265	3
0	84000	13.27224309265	2
0	84115	13.281598093342	3
0	84159	13.290064093342	2
0	84210	13.299271094034	3
0	84237	13.307737094034	2
0	84345	13.316785762546	3
0	84370	13.325251762546	2
0	84402	13.325930763238	3
0	84451	13.334396763238	2
0	84486	13.33469576393	3
0	84503	13.34316176393	2
0	84538	13.343960764622	3
0	84552	13.352426764622	2
0	84622	13.361701765314	3
0	84662	13.370167765314	2
0	84673	13.370557765314	3
0	84721	13.379023765314	2
0	84741	13.381813765314	3
0	84754	13.390279765314	2
0	84789	13.391058766006	3
0	84801	13.399524766006	2
0	84836	13.400243766698	3
0	84853	13.408709766698	2
0	84888	13.40920876739	3
0	84902	13.41767476739	2
0	84937	13.418053768082	3
0	84954	13.426519768082	2
0	85041	13.435874768774	3
0	85070	13.444340768774	2
0	85175	13.453295769466	3
0	85214	13.461761769466	2
0	85378	13.48030510649	3
0	85398	13.48877110649	2
0	85466	13.489170107182	3
0	85492	13.497636107182	2
0	85524	13.497935107874	3
0	85586	13.506401107874	2
0	85621	13.507120108566	3
0	85675	13.515586108566	2
0	85707	13.515885109258	3
0	85754	13.524351109258	2
0	85791	13.52467010995	3
0	85814	13.53313610995	2
0	85913	13.542572778462	3
0	85940	13.551038778462	2
0	85996	13.551317779154	3
0	86031	13.559783779154	2
0	86063	13.560122779846	3
0	86125	13.568588779846	2
0	86157	13.569427780538	3
0	86210	13.577893780538	2
0	86292	13.58714878123	3
0	86328	13.59561478123	2
0	86360	13.595913781922	3
0	86404	13.604379781922	2
0	86494	13.613794782614	3
0	86514	13.622260782614	2
0	86638	13.631557451126	3
0	86659	13.640023451126	2
0	86715	13.640562451818	3
0	86742	13.649028451818	2
0	86822	13.65798345251	3
0	86856	13.66644945251	2
0	86943	13.676286121022	3
0	86984	13.684752121022	2
0	87032	13.686742121022	3
0	87044	13.695208121022	2
0	87079	13.695507121714	3
0	87100	13.703973121714	2
0	87135	13.704592122406	3
0	87155	13.713058122406	2
0	87190	13.713457123098	3
0	87207	13.721923123098	2
0	87289	13.73095812379	3
0	87319	13.73942412379	2
0	87375	13.740143124482	3
0	87405	13.748609124482	2
0	87440	13.749308125174	3
0	87452	13.757774125174	2
0	87537	13.766809125866	3
0	87567	13.775275125866	2
0	87599	13.775554126558	3
0	87643	13.784020126558	2
0	87678	13.78455912725	3
0	87698	13.79302512725	2
0	87733	13.793544127942	3
0	87747	13.802010127942	2
0	87837	13.811125128634	3
0	87863	13.819591128634	2
0	87940	13.820110129326	3
0	87978	13.828576129326	2
0	88085	13.846359130018	3
0	88108	13.854825130018	2
0	88140	13.85524413071	3
0	88194	13.86371013071	2
0	88229	13.864309131402	3
0	88285	13.872775131402	2
0	88376	13.882090132094	3
0	88409	13.890556132094	2
0	88477	13.891235132786	3
0	88500	13.899701132786	2
0	88532	13.900200133478	3
0	88584	13.908666133478	2
0	88669	13.91768113417	3
0	88712	13.92614713417	2
0	88893	13.944690471194	3
0	88942	13.953156471194	2
0	89013	13.963443471886	3
0	89067	13.971909471886	2
0	89082	13.975759471886	3
0	89127	13.984225471886	2
0	89339	14.019741809602	3
0	89382	14.028207809602	2
0	89499	14.040924478114	3
0	89557	14.049390478114	2
0	89733	14.076880150086	3
0	89791	14.085346150086	2
0	89903	14.103329153546	3
0	89948	14.111795153546	2
0	90008	14.121142154238	3
0	90033	14.129608154238	2
0	90147	14.13866315493	3
0	90179	14.14712915493	2
0	90235	14.147988155622	3
0	90272	14.156454155622	2
0	90318	14.156733156314	3
0	90352	14.165199156314	2
0	90428	14.174414157006	3
0	90465	14.182880157006	2
0	90482	14.183670157006	3
0	90527	14.192136157006	2
0	90626	14.201451157698	3
0	90667	14.209917157698	2
0	90831	14.236677495414	3
0	90871	14.245143495414	2
0	90917	14.245573495414	3
0	90941	14.254039495414	2
0	90997	14.254858496106	3
0	91035	14.263324496106	2
0	91104	14.264083496798	3
0	91130	14.272549496798	2
0	91162	14.27314849749	3
0	91217	14.28161449749	2
0	91252	14.282153498182	3
0	91266	14.290619498182	2
0	91359	14.299994498874	3
0	91407	14.308460498874	2
0	91480	14.318047499566	3
0	91528	14.326513499566	2
0	91661	14.34606716877	3
0	91722	14.35453316877	2
0	91736	14.35794316877	3
0	91787	14.36640916877	2
0	91909	14.384762837974	3
0	91953	14.393228837974	2
0	92297	14.449867844202	3
0	92362	14.458333844202	2
0	92373	14.459023844202	3
0	92436	14.467489844202	2
0	92944	14.545781195066	3
0	92999	14.554247195066	2
0	93066	14.563034195758	3
0	93090	14.571500195758	2
0	93146	14.57207919645	3
0	93177	14.58054519645	2
0	93209	14.581124197142	3
0	93270	14.589590197142	2
0	93326	14.590429197834	3
0	93369	14.598895197834	2
0	93495	14.608255869114	3
0	93517	14.616721869114	2
0	93636	14.625978537626	3
0	93664	14.634444537626	2
0	93720	14.635263538318	3
0	93747	14.643729538318	2
0	93824	14.65308453901	3
0	93870	14.66155053901	2
0	93942	14.670747207522	3
0	93972	14.679213207522	2
0	94028	14.679992208214	3
0	94054	14.688458208214	2
0	94089	14.688857208906	3
0	94113	14.697323208906	2
0	94148	14.698182209598	3
0	94165	14.706648209598	2
0	94296	14.724529878802	3
0	94336	14.732995878802	2
0	94353	14.733465878802	3
0	94408	14.741931878802	2
0	94440	14.742730879494	3
0	94487	14.751196879494	2
0	94522	14.751535880186	3
0	94536	14.760001880186	2
0	94571	14.760900880878	3
0	94597	14.769366880878	2
0	94635	14.76996588157	3
0	94646	14.77843188157	2
0	94748	14.787766882262	3
0	94777	14.796232882262	2
0	94851	14.805099882954	3
0	94889	14.813565882954	2
0	94985	14.824922551466	3
0	95041	14.833388551466	2
0	95117	14.843895552158	3
0	95160	14.852361552158	2
0	95231	14.86292855285	3
0	95276	14.87139455285	2
0	95401	14.895768222054	3
0	95459	14.904234222054	2
0	95641	14.934411894026	3
0	95690	14.942877894026	2
0	96027	14.996390568074	3
0	96090	15.004856568074	2
0	96104	15.005226568074	3
0	96161	15.013692568074	2
0	96172	15.014442568074	3
0	96217	15.022908568074	2
0	96299	15.033995568766	3
0	96344	15.042461568766	2
0	96419	15.052588569458	3
0	96462	15.061054569458	2
0	96751	15.105057575686	3
0	96780	15.113523575686	2
0	96812	15.113802576378	3
0	96869	15.122268576378	2
0	96901	15.12282757707	3
0	96963	15.13129357707	2
0	97019	15.132152577762	3
0	97043	15.140618577762	2
0	97123	15.149893578454	3
0	97160	15.158359578454	2
0	97244	15.168136246966	3
0	97279	15.176602246966	2
0	97364	15.186538915478	3
0	97406	15.195004915478	2
0	97429	15.196634915478	3
0	97447	15.205100915478	2
0	97482	15.20561991617	3
0	97497	15.21408591617	2
0	97532	15.214384916862	3
0	97546	15.222850916862	2
0	97581	15.223149917554	3
0	97595	15.231615917554	2
0	97630	15.232474918246	3
0	97644	15.240940918246	2
0	97731	15.250295918938	3
0	97754	15.258761918938	2
0	97820	15.25952091963	3
0	97837	15.26798691963	2
0	97920	15.276941920322	3
0	97966	15.285407920322	2
0	98106	15.303731257346	3
0	98155	15.312197257346	2
0	98191	15.312747257346	3
0	98231	15.321213257346	2
0	98263	15.321592258038	3
0	98311	15.330058258038	2
0	98346	15.33057725873	3
0	98360	15.33904325873	2
0	98459	15.348418259422	3
0	98488	15.356884259422	2
0	98568	15.365831260114	3
0	98599	15.374297260114	2
0	98667	15.374996260806	3
0	98690	15.383462260806	2
0	98722	15.384081261498	3
0	98768	15.392547261498	2
0	98858	15.40194226219	3
0	98881	15.41040826219	2
0	99010	15.419823262882	3
0	99053	15.428289262882	2
0	99113	15.436936263574	3
0	99148	15.445402263574	2
0	99198	15.446672263574	3
0	99224	15.455138263574	2
0	99346	15.464373264266	3
0	99387	15.472839264266	2
0	99419	15.473258264958	3
0	99476	15.481724264958	2
0	99511	15.48224326565	3
0	99558	15.49070926565	2
0	99628	15.500104266342	3
0	99665	15.508570266342	2
0	99711	15.509100266342	3
0	99734	15.517566266342	2
0	99769	15.518065267034	3
0	99787	15.526531267034	2
0	99822	15.526830267726	3
0	99845	15.535296267726	2
0	99880	15.535975268418	3
0	99894	15.544441268418	2
0	99929	15.54472026911	3
0	99943	15.55318626911	2
0	99978	15.553585269802	3
0	99992	15.562051269802	2
0	100079	15.571286270494	3
0	100102	15.579752270494	2
0	100158	15.580251271186	3
0	100185	15.588717271186	2
0	100276	15.598112271878	3
0	100296	15.606578271878	2
0	100365	15.60707727257	3
0	100388	15.61554327257	2
0	100420	15.616422273262	3
0	100466	15.624888273262	2
0	100539	15.633783273954	3
0	100573	15.642249273954	2
0	100619	15.643359273954	3
0	100640	15.651825273954	2
0	100734	15.660920274646	3
0	100760	15.669386274646	2
0	100868	15.678682943158	3
0	100913	15.687148943158	2
0	101001	15.69645594385	3
0	101037	15.70492194385	2
0	101178	15.724495613054	3
0	101233	15.732961613054	2
0	101244	15.733651613054	3
0	101295	15.742117613054	2
0	101705	15.807433956306	3
0	101763	15.815899956306	2
0	101824	15.826649956306	3
0	101882	15.835115956306	2
0	102075	15.868750298174	3
0	102130	15.877216298174	2
0	102456	15.931716638658	3
0	102501	15.940182638658	2
0	102552	15.94908963935	3
0	102585	15.95755563935	2
0	102722	15.975798976374	3
0	102762	15.984264976374	2
0	102847	15.993981644886	3
0	102905	16.002447644886	2
0	102930	16.004777644886	3
0	102978	16.013243644886	2
0	103060	16.030690645578	3
0	103114	16.039156645578	2
0	103166	16.04818364627	3
0	103205	16.05664964627	2
0	103333	16.071546314782	3
0	103384	16.080012314782	2
0	103677	16.125164652498	3
0	103702	16.133630652498	2
0	103803	16.14288732101	3
0	103838	16.15135332101	2
0	103849	16.15170332101	3
0	103906	16.16016932101	2
0	103918	16.16071932101	3
0	103932	16.16918532101	2
0	103967	16.169644321702	3
0	103980	16.178110321702	2
0	104015	16.178469322394	3
0	104038	16.186935322394	2
0	104134	16.196130323086	3
0	104157	16.204596323086	2
0	104225	16.205235323778	3
0	104248	16.213701323778	2
0	104349	16.223128991598	3
0	104373	16.231594991598	2
0	104405	16.23221399229	3
0	104457	16.24067999229	2
0	104492	16.241358992982	3
0	104509	16.249824992982	2
0	104544	16.250163993674	3
0	104564	16.258629993674	2
0	104599	16.258908994366	3
0	104613	16.267374994366	2
0	104651	16.268053995058	3
0	104665	16.276519995058	2
0	104761	16.28577499575	3
0	104799	16.29424099575	2
0	104885	16.303727996442	3
0	104933	16.312193996442	2
0	105128	16.340454334158	3
0	105187	16.348920334158	2
0	105200	16.349290334158	3
0	105260	16.357756334158	2
0	105278	16.360086334158	3
0	105332	16.368552334158	2
0	105714	16.436338008898	3
0	105775	16.444804008898	2
0	105952	16.48224168087	3
0	106015	16.49070768087	2
0	106078	16.49561768087	3
0	106144	16.50408368087	2
0	106157	16.50493368087	3
0	106207	16.51339968087	2
0	106220	16.51456968087	3
0	106239	16.52303568087	2
0	106375	16.540977350074	3
0	106409	16.549443350074	2
0	106488	16.558860018586	3
0	106521	16.567326018586	2
0	106576	16.567905019278	3
0	106609	16.576371019278	2
0	106641	16.57703001997	3
0	106692	16.58549601997	2
0	106727	16.585815020662	3
0	106744	16.594281020662	2
0	106779	16.594660021354	3
0	106793	16.603126021354	2
0	106828	16.603825022046	3
0	106842	16.612291022046	2
0	106877	16.612930022738	3
0	106894	16.621396022738	2
0	106929	16.62209502343	3
0	106943	16.63056102343	2
0	107025	16.639636024122	3
0	107046	16.648102024122	2
0	107143	16.657298692634	3
0	107174	16.665764692634	2
0	107229	16.666423693326	3
0	107255	16.674889693326	2
0	107290	16.675248694018	3
0	107308	16.683714694018	2
0	107343	16.68425369471	3
0	107360	16.69271969471	2
0	107395	16.692998695402	3
0	107412	16.701464695402	2
0	107447	16.701943696094	3
0	107461	16.710409696094	2
0	107498	16.710868696786	3
0	107530	16.719334696786	2
0	107583	16.720304696786	3
0	107637	16.728770696786	2
0	107710	16.738077697478	3
0	107761	16.746543697478	2
0	107896	16.768037366682	3
0	107957	16.776503366682	2
0	108140	16.801233038654	3
0	108153	16.809699038654	2
0	108192	16.810338039346	3
0	108223	16.818804039346	2
0	108308	16.828060707858	3
0	108352	16.836526707858	2
0	108411	16.837956707858	3
0	108459	16.846422707858	2
0	108782	16.893625714086	3
0	108843	16.902091714086	2
0	108866	16.908101714086	3
0	108921	16.916567714086	2
0	109062	16.937337052494	3
0	109120	16.945803052494	2
0	109134	16.947353052494	3
0	109188	16.955819052494	2
0	109368	16.983028721698	3
0	109419	16.991494721698	2
0	109482	17.00022172239	3
0	109519	17.00868772239	2
0	109596	17.018044390902	3
0	109621	17.026510390902	2
0	109653	17.027009391594	3
0	109696	17.035475391594	2
0	109731	17.036094392286	3
0	109757	17.044560392286	2
0	109792	17.045339392978	3
0	109809	17.053805392978	2
0	109844	17.05430439367	3
0	109867	17.06277039367	2
0	109902	17.063509394362	3
0	109913	17.071975394362	2
0	109951	17.072454395054	3
0	109974	17.080920395054	2
0	110009	17.081299395746	3
0	110026	17.089765395746	2
0	110061	17.090044396438	3
0	110075	17.098510396438	2
0	110151	17.10776539713	3
0	110194	17.11623139713	2
0	110240	17.11714139713	3
0	110254	17.12560739713	2
0	110289	17.125906397822	3
0	110304	17.134372397822	2
0	110339	17.134891398514	3
0	110356	17.143357398514	2
0	110432	17.152712399206	3
0	110472	17.161178399206	2
0	110486	17.161668399206	3
0	110534	17.170134399206	2
0	110547	17.171724399206	3
0	110570	17.180190399206	2
0	110625	17.180920399206	3
0	110667	17.189386399206	2
0	110724	17.198213399898	3
0	110768	17.206679399898	2
0	110945	17.231342736922	3
0	111006	17.239808736922	2
0	111341	17.292527745918	3
0	111402	17.300993745918	2
0	111503	17.321656749378	3
0	111569	17.330122749378	2
0	111580	17.330712749378	3
0	111624	17.339178749378	2
0	111690	17.34808575007	3
0	111718	17.35655175007	2
0	111799	17.357330750762	3
0	111847	17.365796750762	2
0	111921	17.375163751454	3
0	111962	17.383629751454	2
0	112150	17.41093008917	3
0	112191	17.41939608917	2
0	112274	17.428943089862	3
0	112321	17.437409089862	2
0	112347	17.444619089862	3
0	112405	17.453085089862	2
0	112650	17.492299765294	3
0	112715	17.500765765294	2
0	112890	17.527835437266	3
0	112943	17.536301437266	2
0	113113	17.562431109238	3
0	113160	17.570897109238	2
0	113222	17.57976410993	3
0	113260	17.58823010993	2
0	113316	17.58928010993	3
0	113370	17.59774610993	2
0	113440	17.606933110622	3
0	113463	17.615399110622	2
0	113529	17.615738111314	3
0	113554	17.624204111314	2
0	113613	17.625003112006	3
0	113639	17.633469112006	2
0	113730	17.642844112698	3
0	113756	17.651310112698	2
0	113883	17.66062678121	3
0	113910	17.66909278121	2
0	113979	17.669451781902	3
0	114002	17.677917781902	2
0	114184	17.695739451106	3
0	114242	17.704205451106	2
0	114253	17.704575451106	3
0	114317	17.713041451106	2
0	114328	17.713411451106	3
0	114386	17.721877451106	2
0	114398	17.724967451106	3
0	114446	17.733433451106	2
0	114512	17.742900451798	3
0	114543	17.751366451798	2
0	114575	17.75176545249	3
0	114628	17.76023145249	2
0	114663	17.760670453182	3
0	114683	17.769136453182	2
0	114768	17.778151453874	3
0	114808	17.786617453874	2
0	114825	17.787027453874	3
0	114870	17.795493453874	2
0	114905	17.795932454566	3
0	114919	17.804398454566	2
0	114954	17.804977455258	3
0	114974	17.813443455258	2
0	115009	17.81374245595	3
0	115020	17.82220845595	2
0	115055	17.822527456642	3
0	115075	17.830993456642	2
0	115162	17.840408457334	3
0	115188	17.848874457334	2
0	115254	17.849213458026	3
0	115285	17.857679458026	2
0	115317	17.858218458718	3
0	115363	17.866684458718	2
0	115398	17.86722345941	3
0	115424	17.87568945941	2
0	115520	17.885064460102	3
0	115574	17.893530460102	2
0	115815	17.92923746633	3
0	115853	17.93770346633	2
0	115990	17.956437135534	3
0	116038	17.964903135534	2
0	116067	17.966493135534	3
0	116125	17.974959135534	2
0	116139	17.977909135534	3
0	116206	17.986375135534	2
0	116330	18.00609880889	3
0	116391	18.01456480889	2
0	116856	18.09487315491	3
0	116914	18.10333915491	2
0	117211	18.156087495394	3
0	117269	18.164553495394	2
0	117280	18.165103495394	3
0	117346	18.173569495394	2
0	117357	18.174419495394	3
0	117424	18.182885495394	2
0	117435	18.183475495394	3
0	117490	18.191941495394	2
0	117502	18.194151495394	3
0	117560	18.202617495394	2
0	117642	18.215361838646	3
0	117665	18.223827838646	2
0	117700	18.224566839338	3
0	117753	18.233032839338	2
0	117785	18.23367184003	3
0	117832	18.24213784003	2
0	117867	18.242676840722	3
0	117884	18.251142840722	2
0	117919	18.251881841414	3
0	117942	18.260347841414	2
0	118035	18.269762842106	3
0	118061	18.278228842106	2
0	118134	18.279087842798	3
0	118157	18.287553842798	2
0	118201	18.287903842798	3
0	118229	18.296369842798	2
0	118324	18.30550651131	3
0	118346	18.31397251131	2
0	118423	18.314711512002	3
0	118460	18.323177512002	2
0	118605	18.341591181206	3
0	118640	18.350057181206	2
0	118736	18.359624181898	3
0	118789	18.368090181898	2
0	118812	18.370540181898	3
0	118870	18.379006181898	2
0	119037	18.405206188818	3
0	119097	18.413672188818	2
0	119111	18.418202188818	3
0	119156	18.426668188818	2
0	119382	18.463484526534	3
0	119435	18.471950526534	2
0	119457	18.474120526534	3
0	119511	18.482586526534	2
0	119562	18.491293527226	3
0	119598	18.499759527226	2
0	119634	18.500349527226	3
0	119661	18.508815527226	2
0	119696	18.509474527918	3
0	119711	18.517940527918	2
0	119798	18.52717552861	3
0	119821	18.53564152861	2
0	119930	18.544876529302	3
0	119969	18.553342529302	2
0	119980	18.553792529302	3
0	120044	18.562258529302	2
0	120195	18.581532201274	3
0	120221	18.589998201274	2
0	120277	18.590337201966	3
0	120314	18.598803201966	2
0	120385	18.599422202658	3
0	120409	18.607888202658	2
0	120441	18.60868720335	3
0	120499	18.61715320335	2
0	120570	18.626008204042	3
0	120604	18.634474204042	2
0	120615	18.635004204042	3
0	120666	18.643470204042	2
0	120851	18.671270541758	3
0	120892	18.679736541758	2
0	120929	18.681246541758	3
0	120989	18.689712541758	2
0	121002	18.692582541758	3
0	121053	18.701048541758	2
0	121518	18.77912088501	3
0	121576	18.78758688501	2
0	121672	18.80598988847	3
0	121732	18.81445588847	2
0	121906	18.843437226878	3
0	121916	18.851903226878	2
0	121951	18.85264222757	3
0	121965	18.86110822757	2
0	122049	18.870343228262	3
0	122075	18.878809228262	2
0	122141	18.879628228954	3
0	122155	18.888094228954	2
0	122234	18.897149229646	3
0	122280	18.905615229646	2
0	122326	18.906625229646	3
0	122337	18.915091229646	2
0	122372	18.915590230338	3
0	122390	18.924056230338	2
0	122466	18.93307123103	3
0	122503	18.94153723103	2
0	122608	18.951613899542	3
0	122631	18.960079899542	2
0	122687	18.960378900234	3
0	122728	18.968844900234	2
0	122763	18.969563900926	3
0	122821	18.978029900926	2
0	122900	18.987084901618	3
0	122937	18.995550901618	2
0	122986	18.996580901618	3
0	123008	19.005046901618	2
0	123044	19.00584590231	3
0	123058	19.01431190231	2
0	123134	19.023446903002	3
0	123171	19.031912903002	2
0	123218	19.033322903002	3
0	123237	19.041788903002	2
0	123273	19.042107903694	3
0	123287	19.050573903694	2
0	123322	19.051032904386	3
0	123333	19.059498904386	2
0	123403	19.068653905078	3
0	123449	19.077119905078	2
0	123460	19.077569905078	3
0	123511	19.086035905078	2
0	123525	19.088185905078	3
0	123535	19.096651905078	2
0	123570	19.09727090577	3
0	123582	19.10573690577	2
0	123617	19.106435906462	3
0	123643	19.114901906462	2
0	123678	19.115560907154	3
0	123707	19.124026907154	2
0	123742	19.124585907846	3
0	123762	19.133051907846	2
0	123797	19.133330908538	3
0	123814	19.141796908538	2
0	123887	19.15085190923	3
0	123921	19.15931790923	2
0	123967	19.16066790923	3
0	123981	19.16913390923	2
0	124017	19.169472909922	3
0	124034	19.177938909922	2
0	124072	19.178757910614	3
0	124083	19.187223910614	2
0	124118	19.187582911306	3
0	124135	19.196048911306	2
0	124170	19.196627911998	3
0	124184	19.205093911998	2
0	124275	19.21408891269	3
0	124308	19.22255491269	2
0	124364	19.223233913382	3
0	124385	19.231699913382	2
0	124482	19.241034914074	3
0	124523	19.249500914074	2
0	124594	19.258327914766	3
0	124616	19.266793914766	2
0	124672	19.267092915458	3
0	124713	19.275558915458	2
0	124745	19.27587791615	3
0	124797	19.28434391615	2
0	124885	19.293758916842	3
0	124912	19.302224916842	2
0	124958	19.302723917534	3
0	124991	19.311189917534	2
0	125026	19.311548918226	3
0	125043	19.320014918226	2
0	125078	19.320453918918	3
0	125098	19.328919918918	2
0	125183	19.33811491961	3
0	125210	19.34658091961	2
0	125336	19.355895920302	3
0	125361	19.364361920302	2
0	125393	19.364980920994	3
0	125450	19.373446920994	2
0	125482	19.373885921686	3
0	125532	19.382351921686	2
0	125602	19.391286922378	3
[...]
101	110206	17.116420898168	1049
101	110414	17.152562565988	1049
101	110498	17.161827900244	1049
101	110579	17.18019156668	1049
101	110646	17.189236900936	1049
101	110706	17.19802356668	1049
101	110782	17.207168900936	1049
101	110840	17.216386235192	1049
101	110893	17.225152903704	1049
101	110963	17.23425823796	1049
101	111026	17.243024572908	1049
101	111081	17.251721907164	1049
101	111133	17.260488575676	1049
101	111185	17.269513909932	1049
101	111240	17.278211244188	1049
101	111292	17.2873379127	1049
101	111356	17.296223246956	1049
101	111416	17.305069581904	1049
101	111478	17.31362691616	1049
101	111518	17.322324250416	1049
101	111592	17.331690585364	1049
101	111658	17.347715916852	1049
101	111733	17.356561251108	1049
101	111816	17.365477251108	1049
101	111880	17.374453918236	1049
101	111941	17.383479252492	1049
101	112010	17.392446918928	1049
101	112060	17.40119358744	1049
101	112109	17.410360255952	1049
101	112170	17.419225590208	1049
101	112233	17.427993256644	1049
101	112289	17.4368785909	1049
101	112359	17.446044925848	1049
101	112422	17.455071260796	1049
101	112478	17.463648595052	1049
101	112507	17.472785929308	1049
101	112555	17.481783263564	1049
101	112607	17.490849932076	1049
101	112671	17.499835266332	1049
101	112737	17.50882160128	1049
101	112789	17.517518935536	1049
101	112847	17.526425604048	1049
101	112902	17.535230938304	1049
101	112959	17.544057273252	1049
101	113014	17.552914607508	1049
101	113072	17.56192127602	1049
101	113139	17.570826610276	1049
101	113204	17.579554276712	1049
101	113272	17.588359610968	1049
101	113339	17.597485945916	1049
101	113408	17.606363277404	1049
101	113698	17.64241427948	1049
101	113851	17.660316947992	1049
101	113925	17.669102282248	1049
101	114100	17.686722949376	1049
101	114166	17.695649617888	1049
101	114273	17.706694952144	1049
101	114341	17.715841287092	1049
101	114410	17.72518762204	1049
101	114480	17.74245061858	1049
101	114750	17.778021620656	1049
101	114822	17.787026954912	1049
101	115130	17.840018624116	1049
101	115479	17.884454626884	1049
101	115543	17.89321996114	1049
101	115612	17.902367627576	1049
101	115670	17.911274296088	1049
101	115719	17.9201209646	1049
101	115774	17.928867633112	1049
101	115832	17.937652967368	1049
101	115895	17.946400633804	1049
101	115948	17.955567302316	1049
101	116006	17.964372636572	1049
101	116082	17.97347897152	1049
101	116151	17.982465306468	1049
101	116220	17.991651641416	1049
101	116278	18.000548975672	1049
101	116348	18.009614309928	1049
101	116408	18.018660644876	1049
101	116461	18.027237979132	1049
101	116487	18.036593979132	1049
101	116541	18.045540647644	1049
101	116590	18.0543859819	1049
101	116640	18.063203316156	1049
101	116695	18.072029984668	1049
101	116753	18.08095665318	1049
101	116813	18.089843321692	1049
101	116871	18.098728655948	1049
101	116928	18.107734990896	1049
101	116984	18.116412325152	1049
101	117013	18.125928325152	1049
101	117067	18.134694993664	1049
101	117113	18.14358032792	1049
101	117168	18.152297662176	1049
101	117223	18.161102996432	1049
101	117295	18.17010933138	1049
101	117376	18.179355666328	1049
101	117448	18.188302001276	1049
101	117514	18.197388336224	1049
101	117574	18.206314671172	1049
101	117633	18.214992005428	1049
101	118003	18.269433008888	1049
101	118161	18.28755400958	1049
101	118317	18.305296678092	1049
101	118439	18.322990012348	1049
101	118511	18.332254679476	1049
101	118564	18.341081347988	1049
101	118619	18.349866682244	1049
101	118695	18.35889434868	1049
101	118757	18.367719682936	1049
101	118827	18.376626017884	1049
101	118884	18.385632352832	1049
101	118939	18.394509687088	1049
101	118991	18.4033163556	1049
101	119054	18.412101689856	1049
101	119123	18.421108024804	1049
101	119183	18.435345356292	1049
101	119234	18.444152024804	1049
101	119286	18.45319735906	1049
101	119336	18.462034693316	1049
101	119403	18.471080027572	1049
101	119472	18.48042636252	1049
101	119544	18.491183694008	1049
101	119612	18.500209028264	1049
101	119766	18.526865695392	1049
101	119912	18.544666696084	1049
101	119992	18.55443203034	1049
101	120059	18.563378365288	1049
101	120110	18.572175699544	1049
101	120163	18.581182368056	1049
101	120552	18.625938370824	1049
101	120627	18.63502370508	1049
101	120698	18.652947371516	1049
101	120758	18.661854040028	1049
101	120810	18.67076070854	1049
101	120871	18.679526042796	1049
101	120947	18.688272377744	1049
101	121020	18.697118712692	1049
101	121089	18.709705709232	1049
101	121137	18.718511043488	1049
101	121193	18.727308377744	1049
101	121248	18.736255046256	1049
101	121297	18.745001714768	1049
101	121419	18.76292438328	1049
101	121475	18.771831051792	1049
101	121530	18.780656386048	1049
101	121590	18.789482720996	1049
101	121652	18.798100055252	1049
101	121687	18.807797389508	1049
101	121746	18.816663724456	1049
101	121793	18.825470059404	1049
101	121849	18.83408739366	1049
101	121874	18.842684727916	1049
101	122017	18.869953395044	1049
101	122216	18.896999396428	1049
101	122294	18.906224730684	1049
101	122448	18.932921397812	1049
101	122515	18.941826732068	1049
101	122575	18.951284066324	1049
101	122882	18.9869750684	1049
101	122951	18.996140402656	1049
101	123116	19.023257069784	1049
101	123185	19.03234240404	1049
101	123385	19.06852407186	1049
101	123472	19.077669406116	1049
101	123869	19.150722076012	1049
101	123935	19.160067410268	1049
101	124251	19.213859079472	1049
101	124441	19.240545080856	1049
101	124502	19.249330415112	1049
101	124564	19.258078081548	1049
101	124855	19.293509083624	1049
101	125153	19.337845086392	1049
101	125304	19.355566087084	1049
101	125584	19.39111708916	1049
101	125656	19.400262423416	1049
101	125755	19.417914089852	1049
101	125833	19.427239424108	1049
101	125901	19.444423090544	1049
101	125958	19.4533084248	1049
101	126026	19.462596091236	1049
101	126093	19.471681425492	1049
101	126162	19.484189091928	1049
101	126213	19.49303576044	1049
101	126274	19.501881094696	1049
101	126334	19.511027429644	1049
101	126386	19.5197647639	1049
101	126442	19.528851432412	1049
101	126504	19.537616766668	1049
101	126573	19.546843101616	1049
101	126623	19.555420435872	1049
101	126660	19.563937770128	1049
101	126723	19.577433436564	1049
101	126780	19.586480105076	1049
101	126829	19.595445439332	1049
101	127027	19.62174610646	1049
101	127076	19.630572774972	1049
101	127143	19.639358109228	1049
101	127210	19.648404444176	1049
101	127277	19.657841775664	1049
101	127332	19.666928444176	1049
101	127393	19.675933778432	1049
101	127465	19.68482011338	1049
101	127537	19.699297444868	1049
101	127585	19.70830411338	1049
101	127655	19.717089447636	1049
101	127713	19.726135782584	1049
101	127780	19.742413114072	1049
101	127831	19.751439782584	1049
101	127889	19.76028511684	1049
101	127949	19.769111451788	1049
101	127999	19.777648786044	1049
101	128171	19.804314787428	1049
101	128377	19.831000788812	1049
101	128451	19.839806123068	1049
101	128517	19.848613789504	1049
101	128573	19.857420458016	1049
101	128625	19.866387126528	1049
101	128677	19.87513379504	1049
101	128738	19.883899129296	1049
101	128807	19.892865464244	1049
101	128879	19.901691799192	1049
101	128939	19.91083813414	1049
101	129037	19.928602795732	1049
101	129101	19.937448129988	1049
101	129163	19.946215796424	1049
101	129216	19.955042464936	1049
101	129274	19.963887799192	1049
101	129343	19.973135465628	1049
101	129410	19.982000799884	1049
101	129479	19.990967134832	1049
102	27980	4.770934364502	1049
102	28060	4.782050364502	1049
102	28164	4.803453033014	1049
102	28268	4.821607701526	1049
103	28356	4.832948368654	69
104	42107	6.974862102368	1049
104	42227	6.984418102368	1049
104	42527	7.028084773648	1049
104	42687	7.04614577434	1049
104	42812	7.05638177434	1049
104	42908	7.065128109288	1049
104	42993	7.074034444236	1049
104	43183	7.1005267778	1049
104	43416	7.12755411344	1049
104	44198	7.245989457384	1049
104	44292	7.255035792332	1049
104	44548	7.290353460152	1049
104	44747	7.317119461536	1049
104	44881	7.335554130048	1049
104	45218	7.388663133508	1049
104	45446	7.415410469148	1049
104	45947	7.486218808248	1049
104	46179	7.512986474684	1049
104	48394	7.840747847692	1049
104	48731	7.889483516896	1049
104	48992	7.925996186792	1049
104	49184	7.952522188176	1049
104	49408	7.979609523816	1049
104	49522	7.989625523816	1049
104	50038	8.070022193712	1049
104	50482	8.13281019648	1049
104	51454	8.287634877448	1049
104	52775	8.49958457018	1049
104	53442	8.621173245612	1049
104	53559	8.631589245612	1049
104	54105	8.720189251148	1049
104	54213	8.729945251148	1049
104	55533	8.930167930732	1049
104	57938	9.311028617236	1049
104	58095	9.328851285748	1049
104	58420	9.373619955644	1049
104	58994	9.462788628308	1049
104	59091	9.471684628308	1049
104	59266	9.490274629692	1049
104	59361	9.49916096464	1049
104	59453	9.508147299588	1049
104	59854	9.569306637996	1049
104	59994	9.587159638688	1049
104	60079	9.596065973636	1049
104	60168	9.605032308584	1049
104	60455	9.64935364284	1049
104	62229	9.916506006852	1049
104	62424	9.943092008236	1049
104	62958	10.023726682284	1049
104	63092	10.041709348028	1049
104	64023	10.188697361868	1049
104	64138	10.198093361868	1049
104	65171	10.36827570512	1049
104	65270	10.37803170512	1049
104	65583	10.422589375708	1049
104	66902	10.630521397852	1049
104	67090	10.656787399236	1049
104	67459	10.710082737644	1049
104	68170	10.828267741104	1049
104	68344	10.846988741796	1049
104	68440	10.856035076744	1049
104	68782	10.909007413076	1049
104	68950	10.927288413768	1049
104	69049	10.936374748716	1049
104	69238	10.962799415844	1049
104	69623	11.01628241792	1049
104	69809	11.043008419304	1049
104	70084	11.079084088508	1049
104	70170	11.088230423456	1049
104	75855	12.005057842136	1049
104	75986	12.023332510648	1049
104	77309	12.240675523796	1049
104	77633	12.284582525872	1049
104	77801	12.303103526564	1049
104	77896	12.312029861512	1049
104	77994	12.32095619646	1049
104	78617	12.419635201304	1049
104	78754	12.437929869816	1049
104	79213	12.508551873968	1049
104	79335	12.52610654248	1049
104	79443	12.543761210992	1049
104	79544	12.553337210992	1049
104	82739	13.093369249744	1049
104	82925	13.119755251128	1049
104	83650	13.22781659092	1049
104	83759	13.23775259092	1049
104	83952	13.263427592996	1049
104	84272	13.308018595072	1049
104	84414	13.326613263584	1049
104	85094	13.444370269812	1049
104	85422	13.488820607528	1049
104	85536	13.498736607528	1049
104	85633	13.507502942476	1049
104	85720	13.516609277424	1049
104	85964	13.5512282795	1049
104	86075	13.5604642795	1049
104	86169	13.569690614448	1049
104	86372	13.596244282268	1049
104	86548	13.622530283652	1049
104	86694	13.640392952164	1049
104	87354	13.740073624828	1049
104	87611	13.775844626904	1049
104	87887	13.819700629672	1049
104	88154	13.856594631056	1049
104	88245	13.865500966004	1049
104	88433	13.890685633132	1049
104	88552	13.900761633132	1049
104	90057	14.129677655276	1049
104	90214	14.147838655968	1049
104	90306	14.156724990916	1049
104	90976	14.2546393314	1049
104	91059	14.263525666348	1049
104	91175	14.273481666348	1049
104	92240	14.446358010984	1049
104	92677	14.50985435562	1049
104	93125	14.571969696796	1049
104	93221	14.581136031744	1049
104	93305	14.590322366692	1049
104	93403	14.59914870164	1049
104	93551	14.616991370152	1049
104	93699	14.635054038664	1049
104	94007	14.67993470856	1049
104	94452	14.742771714788	1049
104	96824	15.114053076724	1049
104	96913	15.123299411672	1049
104	96998	15.13204574662	1049
104	97788	15.259011419976	1049
104	98275	15.321933093332	1049
104	98623	15.374346761152	1049
104	98734	15.384162761152	1049
104	98905	15.410437763228	1049
104	99248	15.45525809956	1049
104	99431	15.473488765304	1049
104	99523	15.482835100252	1049
104	100137	15.580041771532	1049
104	100434	15.616643772916	1049
104	100795	15.669695775684	1049
104	101435	15.768346783296	1049
104	102343	15.918349471184	1049
104	103578	16.115577485024	1049
104	103736	16.133880153536	1049
104	104181	16.204645824124	1049
104	104283	16.214121824124	1049
104	104417	16.232236492636	1049
104	106556	16.567867519624	1049
104	106653	16.577073854572	1049
104	107081	16.64847152516	1049
104	107209	16.666406193672	1049
104	108096	16.80020187118	1049
104	108604	16.8728118781	1049
104	109665	17.02707189194	1049
104	113487	17.61548861166	1049
104	113592	17.62492461166	1049
104	113790	17.651579613736	1049
104	114026	17.677958282248	1049
104	114587	17.751775952836	1049
104	115212	17.848963958372	1049
104	115329	17.858619958372	1049
104	117712	18.224629339684	1049
104	117798	18.233875674632	1049
104	118085	18.278398343144	1049
104	118264	18.296679343836	1049
104	118370	18.314054012348	1049
104	119845	18.535731029648	1049
104	120252	18.590227702312	1049
104	120338	18.59901403726	1049
104	120454	18.60887003726	1049
104	121355	18.753967049024	1049
104	122110	18.8793187293	1049
104	122655	18.96026940058	1049
104	122775	18.96984540058	1049
104	124343	19.223084413728	1049
104	124640	19.266903415804	1049
104	124757	19.276439415804	1049
104	124947	19.30271441788	1049
104	125234	19.346630420648	1049
104	125405	19.36511142134	1049
104	125497	19.374277756288	1049
104	126931	19.60473177428	1049
104	128065	19.7867261203	1049
104	128261	19.813480121684	1049
105	129546	0.1	0
105	129546	0.2	0
105	129546	0.3	0
105	129546	0.4	0
105	129546	0.5	0
105	129546	0.6	0
105	129546	0.7	0
105	129546	0.8	0
105	129546	0.9	0
105	129546	1	0
105	129546	1.1	0
105	129546	1.2	0
105	129546	1.3	0
105	129546	1.4	0
105	129546	1.5	0
105	129546	1.6	0
105	129546	1.7	0
105	129546	1.8	0
105	129546	1.9	0
105	129546	2	0
105	129546	2.1	0
105	129546	2.2	0
105	129546	2.3	0
105	129546	2.4	0
105	129546	2.5	0
105	129546	2.6	0
105	129546	2.7	0
105	129546	2.8	0
105	129546	2.9	0
105	129546	3	0
105	129546	3.1	0
105	129546	3.2	0
105	129546	3.3	0
105	129546	3.4	0
105	129546	3.5	0
105	129546	3.6	0
105	129546	3.7	0
105	129546	3.8	0
105	129546	3.9	0
105	129546	4	0
105	129546	4.1	0
105	129546	4.2	0
105	129546	4.3	0
105	129546	4.4	0
105	129546	4.5	0
105	129546	4.6	0
105	129546	4.7	0
105	129546	4.8	0
105	129546	4.9	0
105	129546	5	0
105	129546	5.1	0
105	129546	5.2	0
105	129546	5.3	0
105	129546	5.4	0
105	129546	5.5	0
105	129546	5.6	0
105	129546	5.7	0
105	129546	5.8	0
105	129546	5.9	0
105	129546	6	0
105	129546	6.1	0
105	129546	6.2	0
105	129546	6.3	0
105	129546	6.4	0
105	129546	6.5	0
105	129546	6.6	0
105	129546	6.7	0
105	129546	6.8	0
105	129546	6.9	0
105	129546	7	0
105	129546	7.1	0
105	129546	7.2	0
105	129546	7.3	0
105	129546	7.4	0
105	129546	7.5	0
105	129546	7.6	0
105	129546	7.7	0
105	129546	7.8	0
105	129546	7.9	0
105	129546	8	0
105	129546	8.1	0
105	129546	8.2	0
105	129546	8.3	0
105	129546	8.4	0
105	129546	8.5	0
105	129546	8.6	0
105	129546	8.7	0
105	129546	8.8	0
105	129546	8.9	0
105	129546	9	0
105	129546	9.1	0
105	129546	9.2	0
105	129546	9.3	0
105	129546	9.4	0
105	129546	9.5	0
105	129546	9.6	0
105	129546	9.7	0
105	129546	9.8	0
105	129546	9.9	0
105	129546	10	0
105	129546	10.1	0
105	129546	10.2	0
105	129546	10.3	0
105	129546	10.4	0
105	129546	10.5	0
105	129546	10.6	0
105	129546	10.7	0
105	129546	10.8	0
105	129546	10.9	0
105	129546	11	0
105	129546	11.1	0
105	129546	11.2	0
105	129546	11.3	0
105	129546	11.4	0
105	129546	11.5	0
105	129546	11.6	0
105	129546	11.7	0
105	129546	11.8	0
105	129546	11.9	0
105	129546	12	0
105	129546	12.1	0
105	129546	12.2	0
105	129546	12.3	0
105	129546	12.4	0
105	129546	12.5	0
105	129546	12.6	0
105	129546	12.7	0
105	129546	12.8	0
105	129546	12.9	0
105	129546	13	0
105	129546	13.1	0
105	129546	13.2	0
105	129546	13.3	0
105	129546	13.4	0
105	129546	13.5	0
105	129546	13.6	0
105	129546	13.7	0
105	129546	13.8	0
105	129546	13.9	0
105	129546	14	0
105	129546	14.1	0
105	129546	14.2	0
105	129546	14.3	0
105	129546	14.4	0
105	129546	14.5	0
105	129546	14.6	0
105	129546	14.7	0
105	129546	14.8	0
105	129546	14.9	0
105	129546	15	0
105	129546	15.1	0
105	129546	15.2	0
105	129546	15.3	0
105	129546	15.4	0
105	129546	15.5	0
105	129546	15.6	0
105	129546	15.7	0
105	129546	15.8	0
105	129546	15.9	0
105	129546	16	0
105	129546	16.1	0
105	129546	16.2	0
105	129546	16.3	0
105	129546	16.4	0
105	129546	16.5	0
105	129546	16.6	0
105	129546	16.7	0
105	129546	16.8	0
105	129546	16.9	0
105	129546	17	0
105	129546	17.1	0
105	129546	17.2	0
105	129546	17.3	0
105	129546	17.4	0
105	129546	17.5	0
105	129546	17.6	0
105	129546	17.7	0
105	129546	17.8	0
105	129546	17.9	0
105	129546	18	0
105	129546	18.1	0
105	129546	18.2	0
105	129546	18.3	0
105	129546	18.4	0
105	129546	18.5	0
105	129546	18.6	0
105	129546	18.7	0
105	129546	18.8	0
105	129546	18.9	0
105	129546	19	0
105	129546	19.1	0
105	129546	19.2	0
105	129546	19.3	0
105	129546	19.4	0
105	129546	19.5	0
105	129546	19.6	0
105	129546	19.7	0
105	129546	19.8	0
105	129546	19.9	0
105	129546	20	0
106	129546	0.1	0
106	129546	0.2	0
106	129546	0.3	0
106	129546	0.4	0
106	129546	0.5	0
106	129546	0.6	0
106	129546	0.7	0
106	129546	0.8	0
106	129546	0.9	0
106	129546	1	0
106	129546	1.1	0
106	129546	1.2	0
106	129546	1.3	0
106	129546	1.4	0
106	129546	1.5	0
106	129546	1.6	0
106	129546	1.7	0
106	129546	1.8	0
106	129546	1.9	0
106	129546	2	0
106	129546	2.1	0
106	129546	2.2	0
106	129546	2.3	0
106	129546	2.4	0
106	129546	2.5	0
106	129546	2.6	0
106	129546	2.7	0
106	129546	2.8	0
106	129546	2.9	0
106	129546	3	0
106	129546	3.1	0
106	129546	3.2	0
106	129546	3.3	0
106	129546	3.4	0
106	129546	3.5	0
106	129546	3.6	0
106	129546	3.7	0
106	129546	3.8	0
106	129546	3.9	0
106	129546	4	0
106	129546	4.1	0
106	129546	4.2	0
106	129546	4.3	0
106	129546	4.4	0
106	129546	4.5	0
106	129546	4.6	0
106	129546	4.7	0
106	129546	4.8	0
106	129546	4.9	0
106	129546	5	0
106	129546	5.1	0
106	129546	5.2	0
106	129546	5.3	0
106	129546	5.4	0
106	129546	5.5	0
106	129546	5.6	0
106	129546	5.7	0
106	129546	5.8	0
106	129546	5.9	0
106	129546	6	0
106	129546	6.1	0
106	129546	6.2	0
106	129546	6.3	0
106	129546	6.4	0
106	129546	6.5	0
106	129546	6.6	0
106	129546	6.7	0
106	129546	6.8	0
106	129546	6.9	0
106	129546	7	0
106	129546	7.1	0
106	129546	7.2	0
106	129546	7.3	0
106	129546	7.4	0
106	129546	7.5	0
106	129546	7.6	0
106	129546	7.7	0
106	129546	7.8	0
106	129546	7.9	0
106	129546	8	0
106	129546	8.1	0
106	129546	8.2	0
106	129546	8.3	0
106	129546	8.4	0
106	129546	8.5	0
106	129546	8.6	0
106	129546	8.7	0
106	129546	8.8	0
106	129546	8.9	0
106	129546	9	0
106	129546	9.1	0
106	129546	9.2	0
106	129546	9.3	0
106	129546	9.4	0
106	129546	9.5	0
106	129546	9.6	0
106	129546	9.7	0
106	129546	9.8	0
106	129546	9.9	0
106	129546	10	0
106	129546	10.1	0
106	129546	10.2	0
106	129546	10.3	0
106	129546	10.4	0
106	129546	10.5	0
106	129546	10.6	0
106	129546	10.7	0
106	129546	10.8	0
106	129546	10.9	0
106	129546	11	0
106	129546	11.1	0
106	129546	11.2	0
106	129546	11.3	0
106	129546	11.4	0
106	129546	11.5	0
106	129546	11.6	0
106	129546	11.7	0
106	129546	11.8	0
106	129546	11.9	0
106	129546	12	0
106	129546	12.1	0
106	129546	12.2	0
106	129546	12.3	0
106	129546	12.4	0
106	129546	12.5	0
106	129546	12.6	0
106	129546	12.7	0
106	129546	12.8	0
106	129546	12.9	0
106	129546	13	0
106	129546	13.1	0
106	129546	13.2	0
106	129546	13.3	0
106	129546	13.4	0
106	129546	13.5	0
106	129546	13.6	0
106	129546	13.7	0
106	129546	13.8	0
106	129546	13.9	0
106	129546	14	0
106	129546	14.1	0
106	129546	14.2	0
106	129546	14.3	0
106	129546	14.4	0
106	129546	14.5	0
106	129546	14.6	0
106	129546	14.7	0
106	129546	14.8	0
106	129546	14.9	0
106	129546	15	0
106	129546	15.1	0
106	129546	15.2	0
106	129546	15.3	0
106	129546	15.4	0
106	129546	15.5	0
106	129546	15.6	0
106	129546	15.7	0
106	129546	15.8	0
106	129546	15.9	0
106	129546	16	0
106	129546	16.1	0
106	129546	16.2	0
106	129546	16.3	0
106	129546	16.4	0
106	129546	16.5	0
106	129546	16.6	0
106	129546	16.7	0
106	129546	16.8	0
106	129546	16.9	0
106	129546	17	0
106	129546	17.1	0
106	129546	17.2	0
106	129546	17.3	0
106	129546	17.4	0
106	129546	17.5	0
106	129546	17.6	0
106	129546	17.7	0
106	129546	17.8	0
106	129546	17.9	0
106	129546	18	0
106	129546	18.1	0
106	129546	18.2	0
106	129546	18.3	0
106	129546	18.4	0
106	129546	18.5	0
106	129546	18.6	0
106	129546	18.7	0
106	129546	18.8	0
106	129546	18.9	0
106	129546	19	0
106	129546	19.1	0
106	129546	19.2	0
106	129546	19.3	0
106	129546	19.4	0
106	129546	19.5	0
106	129546	19.6	0
106	129546	19.7	0
106	129546	19.8	0
106	129546	19.9	0
106	129546	20	0

