version 2
run DSCP-0-20220819-03:29:01-34764
attr configname DSCP
attr datetime 20220819-03:29:01
attr experiment DSCP
attr inifile omnetpp.ini
attr iterationvars ""
attr iterationvarsf ""
attr measurement ""
attr network Multihop
attr processid 34764
attr repetition 0
attr replication #0
attr resultdir results
attr runnumber 0
attr seedset 0
param *.hostA.numApps 2
param *.hostA.app[0].dscp 0
param *.hostA.app[0].messageLength 1000B
param *.hostA.app[0].sendInterval exponential(10ms)
param *.hostA.app[0].packetName "\"UDPData-Standard\""
param *.hostA.app[1].typename "\"UdpBasicApp\""
param *.hostA.app[1].destAddresses "\"hostB\""
param *.hostA.app[1].destPort 5000
param *.hostA.app[1].messageLength 1000B
param *.hostA.app[1].sendInterval exponential(10ms)
param *.hostA.app[1].packetName "\"UDPData-Priority\""
param *.hostA.app[1].dscp 14
param *.radioMedium.typename "\"ApskScalarRadioMedium\""
param *.radioMedium.backgroundNoise.power -110dBm
param *.radioMedium.mediumLimitCache.centerFrequency 2.4GHz
param *.host*.wlan[0].radio.typename "\"ApskScalarRadio\""
param *.host*.wlan[0].radio.centerFrequency 2.4GHz
param *.host*.wlan[0].radio.bandwidth 5MHz
param *.host*.wlan[0].radio.transmitter.modulation "\"QPSK\""
param *.host*.wlan[0].radio.transmitter.power 10mW
param *.host*.wlan[0].radio.transmitter.preambleDuration 10us
param *.host*.wlan[0].radio.transmitter.headerLength 8B
param *.host*.wlan[0].radio.receiver.modulation "\"QPSK\""
param *.host*.wlan[0].radio.receiver.sensitivity -120dBm
param *.host*.wlan[0].radio.receiver.energyDetection -100dBm
param *.host*.wlan[0].radio.receiver.snirThreshold 4dB
param *.host*.ipv4.arp.typename "\"GlobalArp\""
param *.host*.forwarding true
param *.configurator.optimizeRoutes false
param *.hostA.numApps 1
param *.hostA.app[0].typename "\"UdpBasicApp\""
param *.hostA.app[0].destAddresses "\"hostB\""
param *.hostA.app[0].destPort 5000
param *.hostA.app[0].messageLength 1000B
param *.hostA.app[0].sendInterval exponential(12ms)
param *.hostA.app[0].packetName "\"UDPData\""
param *.hostB.numApps 1
param *.hostB.app[0].typename "\"UdpSink\""
param *.hostB.app[0].localPort 5000
param *.host*.wlan[0].typename "\"WirelessInterface\""
param *.host*.wlan[0].radio.typename "\"UnitDiskRadio\""
param *.host*.wlan[0].radio.transmitter.communicationRange 300m
param *.host*.wlan[0].radio.transmitter.interferenceRange 500m
param *.host*.wlan[0].mac.typename "\"CsmaCaMac\""
param *.host*.wlan[0].mac.ackTimeout 300us
param *.host*.wlan[0].mac.useAck true
param *.host*.wlan[0].queue.typename "\"DropTailQueue\""
param *.host*.**.bitrate 1Mbps
param *.hostA.wlan[0].radio.displayCommunicationRange true
param *.hostC.wlan[0].radio.displayCommunicationRange true
param *.configurator.addStaticRoutes false
param *.host*.typename "\"AodvRouter\""
param *.host*.mobility.typename "\"StationaryMobility\""
param *.host*.mobility.initialZ 0.1m
param *.physicalEnvironment.config "xmldoc(\"mine.xml\")"
param *.radioMedium.obstacleLoss.typename "\"IdealObstacleLoss\""
param *.visualizer.sceneVisualizer.descriptionFigure "\"title\""
param *.visualizer.physicalLinkVisualizer.displayLinks true
param *.visualizer.physicalLinkVisualizer.packetFilter "\"UDPData*\""

scalar Multihop.radioMedium.propagation "Arrival computation count" 35126
scalar Multihop.radioMedium "transmission count" 5018
scalar Multihop.radioMedium "signal send count" 35126
scalar Multihop.radioMedium "reception computation count" 35126
scalar Multihop.radioMedium "interference computation count" 97987
scalar Multihop.radioMedium "reception decision computation count" 15000
scalar Multihop.radioMedium "listening decision computation count" 49537
scalar Multihop.radioMedium "reception cache hit" 82.81464810783
attr unit %
scalar Multihop.radioMedium "interference cache hit" 66.666666666667
attr unit %
scalar Multihop.radioMedium "noise cache hit" 0
attr unit %
scalar Multihop.radioMedium "snir cache hit" 50
attr unit %
scalar Multihop.radioMedium "reception decision cache hit" 50
attr unit %
scalar Multihop.radioMedium "reception result cache hit" 0
attr unit %
scalar Multihop.hostA.lo[0].lo rcvdPkFromHl:count 0
attr interpolationmode none
attr source packetReceivedFromUpper
attr title "packets received from higher layer, count"
scalar Multihop.hostA.lo[0].lo rcvdPkFromHl:sum(packetBytes) 0
attr interpolationmode none
attr source packetReceivedFromUpper
attr title "packets received from higher layer, sum(packetBytes)"
scalar Multihop.hostA.lo[0].lo passedUpPk:count 0
attr interpolationmode none
attr source packetSentToUpper
attr title "packets passed to higher layer, count"
scalar Multihop.hostA.lo[0].lo passedUpPk:sum(packetBytes) 0
attr interpolationmode none
attr source packetSentToUpper
attr title "packets passed to higher layer, sum(packetBytes)"
scalar Multihop.hostA.wlan[0].mac.queue packetPopped:count 758
attr interpolationmode none
attr title "packet popped, count"
scalar Multihop.hostA.wlan[0].mac.queue packetPopped:sum(packetBytes) 787338
attr interpolationmode none
attr title "packet popped, sum(packetBytes)"
statistic Multihop.hostA.wlan[0].mac.queue queueingTime:histogram
field count 758
field mean 4.9428339814474
field stddev 3.6496503044305
field min 0
field max 13.09066403454
field sum 3746.6681579371
field sqrsum 28602.358828143
attr interpolationmode none
attr source queueingTime(packetPopped)
attr title "queueing times, histogram"
attr unit s
bin	-inf	0
bin	0	32
bin	0.2	26
bin	0.4	24
bin	0.6	5
bin	0.8	16
bin	1	9
bin	1.2	11
bin	1.4	1
bin	1.6	17
bin	1.8	56
bin	2	52
bin	2.2	29
bin	2.4	15
bin	2.6	20
bin	2.8	5
bin	3	6
bin	3.2	6
bin	3.4	10
bin	3.6	4
bin	3.8	8
bin	4	13
bin	4.2	16
bin	4.4	20
bin	4.6	14
bin	4.8	1
bin	5	3
bin	5.2	18
bin	5.4	13
bin	5.6	15
bin	5.8	20
bin	6	22
bin	6.2	12
bin	6.4	14
bin	6.6	13
bin	6.8	14
bin	7	6
bin	7.2	6
bin	7.4	5
bin	7.6	6
bin	7.8	11
bin	8	1
bin	8.2	7
bin	8.4	11
bin	8.6	15
bin	8.8	2
bin	9	1
bin	9.2	6
bin	9.4	6
bin	9.6	9
bin	9.8	9
bin	10	2
bin	10.2	11
bin	10.4	2
bin	10.6	3
bin	10.8	11
bin	11	5
bin	11.2	2
bin	11.4	7
bin	11.6	8
bin	11.8	0
bin	12	11
bin	12.2	15
bin	12.4	13
bin	12.6	2
bin	12.8	4
bin	13	1
bin	13.2	0
scalar Multihop.hostA.wlan[0].mac.queue queueLength:max 1264
attr interpolationmode sample-hold
attr source "count(packetPushed) - count(packetPopped) - count(packetRemoved) - count(packetDropped)"
attr title "queue length, max"
scalar Multihop.hostA.wlan[0].mac.queue queueLength:timeavg 688.65468935499
attr interpolationmode sample-hold
attr source "count(packetPushed) - count(packetPopped) - count(packetRemoved) - count(packetDropped)"
attr title "queue length, timeavg"
scalar Multihop.hostA.wlan[0].mac.queue packetPushed:count 1530
attr interpolationmode none
attr title "packet pushed, count"
scalar Multihop.hostA.wlan[0].mac.queue packetPushed:sum(packetBytes) 1586434
attr interpolationmode none
attr title "packet pushed, sum(packetBytes)"
scalar Multihop.hostA.wlan[0].mac.queue packetDropQueueOverflow:count 0
attr interpolationmode none
attr source packetDropReasonIsQueueOverflow(packetDropped)
attr title "packet drops: queue overflow, count"
scalar Multihop.hostA.wlan[0].mac.queue packetDropQueueOverflow:sum(packetBytes) 0
attr interpolationmode none
attr source packetDropReasonIsQueueOverflow(packetDropped)
attr title "packet drops: queue overflow, sum(packetBytes)"
scalar Multihop.hostA.wlan[0].mac.queue packetRemoved:count 0
attr interpolationmode none
attr title "packets removed, count"
scalar Multihop.hostA.wlan[0].mac.queue packetRemoved:sum(packetBytes) 0
attr interpolationmode none
attr title "packets removed, sum(packetBytes)"
scalar Multihop.hostA.wlan[0].mac numRetry 395
scalar Multihop.hostA.wlan[0].mac numSentWithoutRetry 613
scalar Multihop.hostA.wlan[0].mac numGivenUp 24
scalar Multihop.hostA.wlan[0].mac numCollision 0
scalar Multihop.hostA.wlan[0].mac numSent 725
scalar Multihop.hostA.wlan[0].mac numReceived 3
scalar Multihop.hostA.wlan[0].mac numSentBroadcast 8
scalar Multihop.hostA.wlan[0].mac numReceivedBroadcast 13
scalar Multihop.hostA.wlan[0].mac packetDropIncorrectlyReceived:count 0
attr interpolationmode none
attr source packetDropReasonIsIncorrectlyReceived(packetDropped)
attr title "packet drop: incorrectly received, count"
scalar Multihop.hostA.wlan[0].mac packetDropIncorrectlyReceived:sum(packetBytes) 0
attr interpolationmode none
attr source packetDropReasonIsIncorrectlyReceived(packetDropped)
attr title "packet drop: incorrectly received, sum(packetBytes)"
scalar Multihop.hostA.wlan[0].mac packetDropNotAddressedToUs:count 807
attr interpolationmode none
attr source packetDropReasonIsNotAddressedToUs(packetDropped)
attr title "packet drop: not addressed to us, count"
scalar Multihop.hostA.wlan[0].mac packetDropNotAddressedToUs:sum(packetBytes) 845563
attr interpolationmode none
attr source packetDropReasonIsNotAddressedToUs(packetDropped)
attr title "packet drop: not addressed to us, sum(packetBytes)"
scalar Multihop.hostA.wlan[0].mac packetDropQueueOverflow:count 0
attr interpolationmode none
attr source packetDropReasonIsQueueOverflow(packetDropped)
attr title "packet drop: queue overflow, count"
scalar Multihop.hostA.wlan[0].mac packetDropQueueOverflow:sum(packetBytes) 0
attr interpolationmode none
attr source packetDropReasonIsQueueOverflow(packetDropped)
attr title "packet drop: queue overflow, sum(packetBytes)"
scalar Multihop.hostA.wlan[0].mac packetDropRetryLimitReached:count 24
attr interpolationmode none
attr source packetDropReasonIsRetryLimitReached(packetDropped)
attr title "packet drop: retry limit reached, count"
scalar Multihop.hostA.wlan[0].mac packetDropRetryLimitReached:sum(packetBytes) 25176
attr interpolationmode none
attr source packetDropReasonIsRetryLimitReached(packetDropped)
attr title "packet drop: retry limit reached, sum(packetBytes)"
scalar Multihop.hostA.wlan[0].mac linkBroken:count 24
attr interpolationmode none
attr source linkBroken
attr title "link break, count"
statistic Multihop.hostA.wlan[0].radio minSnir:histogram
field count 1551
field mean 3245.1005969977
field stddev 1672.5376685709
field min 806.60907839335
field max 4391.5383156971
field sum 5033151.0259435
field sqrsum 20669023890.891
attr source minimumSnir(packetSentToUpper)
attr title "Min SNIR, histogram"
bin	-inf	0
bin	0	0
bin	100	0
bin	200	0
bin	300	0
bin	400	0
bin	500	0
bin	600	0
bin	700	0
bin	800	496
bin	900	0
bin	1000	0
bin	1100	0
bin	1200	0
bin	1300	0
bin	1400	0
bin	1500	0
bin	1600	0
bin	1700	0
bin	1800	0
bin	1900	0
bin	2000	0
bin	2100	0
bin	2200	0
bin	2300	0
bin	2400	0
bin	2500	0
bin	2600	0
bin	2700	0
bin	2800	0
bin	2900	0
bin	3000	0
bin	3100	0
bin	3200	0
bin	3300	0
bin	3400	0
bin	3500	0
bin	3600	0
bin	3700	0
bin	3800	0
bin	3900	0
bin	4000	0
bin	4100	0
bin	4200	0
bin	4300	1055
bin	4400	0
bin	4500	0
bin	4600	0
bin	4700	0
bin	4800	0
bin	4900	0
bin	5000	0
bin	5100	0
bin	5200	0
bin	5300	0
statistic Multihop.hostA.wlan[0].radio packetErrorRate:histogram
field count 1551
field mean 0
field stddev 0
field min 0
field max 0
field sum 0
field sqrsum 0
attr source packetErrorRate(packetSentToUpper)
attr title "Packet error rate, histogram"
bin	-inf	0
bin	-0.5	0
bin	-0.48	0
bin	-0.46	0
bin	-0.44	0
bin	-0.42	0
bin	-0.4	0
bin	-0.38	0
bin	-0.36	0
bin	-0.34	0
bin	-0.32	0
bin	-0.3	0
bin	-0.28	0
bin	-0.26	0
bin	-0.24	0
bin	-0.22	0
bin	-0.2	0
bin	-0.18	0
bin	-0.16	0
bin	-0.14	0
bin	-0.12	0
bin	-0.1	0
bin	-0.08	0
bin	-0.06	0
bin	-0.04	0
bin	-0.02	0
bin	0	1551
bin	0.02	0
bin	0.04	0
bin	0.06	0
bin	0.08	0
bin	0.1	0
bin	0.12	0
bin	0.14	0
bin	0.16	0
bin	0.18	0
bin	0.2	0
bin	0.22	0
bin	0.24	0
bin	0.26	0
bin	0.28	0
bin	0.3	0
bin	0.32	0
bin	0.34	0
bin	0.36	0
bin	0.38	0
bin	0.4	0
bin	0.42	0
bin	0.44	0
bin	0.46	0
bin	0.48	0
bin	0.5	0
statistic Multihop.hostA.wlan[0].radio bitErrorRate:histogram
field count 1551
field mean 0
field stddev 0
field min 0
field max 0
field sum 0
field sqrsum 0
attr source bitErrorRate(packetSentToUpper)
attr title "Bit error rate, histogram"
bin	-inf	0
bin	-0.5	0
bin	-0.48	0
bin	-0.46	0
bin	-0.44	0
bin	-0.42	0
bin	-0.4	0
bin	-0.38	0
bin	-0.36	0
bin	-0.34	0
bin	-0.32	0
bin	-0.3	0
bin	-0.28	0
bin	-0.26	0
bin	-0.24	0
bin	-0.22	0
bin	-0.2	0
bin	-0.18	0
bin	-0.16	0
bin	-0.14	0
bin	-0.12	0
bin	-0.1	0
bin	-0.08	0
bin	-0.06	0
bin	-0.04	0
bin	-0.02	0
bin	0	1551
bin	0.02	0
bin	0.04	0
bin	0.06	0
bin	0.08	0
bin	0.1	0
bin	0.12	0
bin	0.14	0
bin	0.16	0
bin	0.18	0
bin	0.2	0
bin	0.22	0
bin	0.24	0
bin	0.26	0
bin	0.28	0
bin	0.3	0
bin	0.32	0
bin	0.34	0
bin	0.36	0
bin	0.38	0
bin	0.4	0
bin	0.42	0
bin	0.44	0
bin	0.46	0
bin	0.48	0
bin	0.5	0
statistic Multihop.hostA.wlan[0].radio symbolErrorRate:histogram
field count 1551
field mean 0
field stddev 0
field min 0
field max 0
field sum 0
field sqrsum 0
attr source symbolErrorRate(packetSentToUpper)
attr title "Symbol error rate, histogram"
bin	-inf	0
bin	-0.5	0
bin	-0.48	0
bin	-0.46	0
bin	-0.44	0
bin	-0.42	0
bin	-0.4	0
bin	-0.38	0
bin	-0.36	0
bin	-0.34	0
bin	-0.32	0
bin	-0.3	0
bin	-0.28	0
bin	-0.26	0
bin	-0.24	0
bin	-0.22	0
bin	-0.2	0
bin	-0.18	0
bin	-0.16	0
bin	-0.14	0
bin	-0.12	0
bin	-0.1	0
bin	-0.08	0
bin	-0.06	0
bin	-0.04	0
bin	-0.02	0
bin	0	1551
bin	0.02	0
bin	0.04	0
bin	0.06	0
bin	0.08	0
bin	0.1	0
bin	0.12	0
bin	0.14	0
bin	0.16	0
bin	0.18	0
bin	0.2	0
bin	0.22	0
bin	0.24	0
bin	0.26	0
bin	0.28	0
bin	0.3	0
bin	0.32	0
bin	0.34	0
bin	0.36	0
bin	0.38	0
bin	0.4	0
bin	0.42	0
bin	0.44	0
bin	0.46	0
bin	0.48	0
bin	0.5	0
scalar Multihop.hostA.wlan[0].radio transmissionState:count 4620
attr interpolationmode sample-hold
attr source transmissionStateChanged
attr title "Radio transmission state, count"
scalar Multihop.hostA.wlan[0].radio receptionState:count 5416
attr interpolationmode sample-hold
attr source receptionStateChanged
attr title "Radio reception state, count"
scalar Multihop.hostA.wlan[0].radio radioMode:count 2313
attr interpolationmode sample-hold
attr source radioModeChanged
attr title "Radio mode, count"
scalar Multihop.hostA.ipv4.ip packetDropAddressResolutionFailed:count 0
attr interpolationmode none
attr source packetDropReasonIsAddressResolutionFailed(packetDropped)
attr title "packet drop: address resolution failed, count"
scalar Multihop.hostA.ipv4.ip packetDropAddressResolutionFailed:sum(packetBytes) 0
attr interpolationmode none
attr source packetDropReasonIsAddressResolutionFailed(packetDropped)
attr title "packet drop: address resolution failed, sum(packetBytes)"
scalar Multihop.hostA.ipv4.ip packetDropHopLimitReached:count 0
attr interpolationmode none
attr source packetDropReasonIsHopLimitReached(packetDropped)
attr title "packet drop: hop limit reached, count"
scalar Multihop.hostA.ipv4.ip packetDropHopLimitReached:sum(packetBytes) 0
attr interpolationmode none
attr source packetDropReasonIsHopLimitReached(packetDropped)
attr title "packet drop: hop limit reached, sum(packetBytes)"
scalar Multihop.hostA.ipv4.ip packetDropForwardingDisabled:count 0
attr interpolationmode none
attr source packetDropReasonIsForwardingDisabled(packetDropped)
attr title "packet drop: forwarding disabled, count"
scalar Multihop.hostA.ipv4.ip packetDropForwardingDisabled:sum(packetBytes) 0
attr interpolationmode none
attr source packetDropReasonIsForwardingDisabled(packetDropped)
attr title "packet drop: forwarding disabled, sum(packetBytes)"
scalar Multihop.hostA.ipv4.ip packetDropNoInterfaceFound:count 0
attr interpolationmode none
attr source packetDropReasonIsNoInterfaceFound(packetDropped)
attr title "packet drop: no interface found, count"
scalar Multihop.hostA.ipv4.ip packetDropNoInterfaceFound:sum(packetBytes) 0
attr interpolationmode none
attr source packetDropReasonIsNoInterfaceFound(packetDropped)
attr title "packet drop: no interface found, sum(packetBytes)"
scalar Multihop.hostA.ipv4.ip packetDropNoRouteFound:count 0
attr interpolationmode none
attr source packetDropReasonIsNoRouteFound(packetDropped)
attr title "packet drop: no route found, count"
scalar Multihop.hostA.ipv4.ip packetDropNoRouteFound:sum(packetBytes) 0
attr interpolationmode none
attr source packetDropReasonIsNoRouteFound(packetDropped)
attr title "packet drop: no route found, sum(packetBytes)"
scalar Multihop.hostA.ipv4.ip packetDropUndefined:count 0
attr interpolationmode none
attr source packetDropReasonIsUndefined(packetDropped)
attr title "packet drop: undefined, count"
scalar Multihop.hostA.ipv4.ip packetDropUndefined:sum(packetBytes) 0
attr interpolationmode none
attr source packetDropReasonIsUndefined(packetDropped)
attr title "packet drop: undefined, sum(packetBytes)"
scalar Multihop.hostA.udp packetReceived:count 16
attr interpolationmode none
attr source packetReceived
attr title "packets received, count"
scalar Multihop.hostA.udp packetReceived:sum(packetBytes) 500
attr interpolationmode none
attr source packetReceived
attr title "packets received, sum(packetBytes)"
scalar Multihop.hostA.udp packetSent:count 3955
attr interpolationmode none
attr source packetSent
attr title "packets sent, count"
scalar Multihop.hostA.udp packetSent:sum(packetBytes) 3968104
attr interpolationmode none
attr source packetSent
attr title "packets sent, sum(packetBytes)"
scalar Multihop.hostA.udp passedUpPk:count 16
attr interpolationmode none
attr source packetSentToUpper
attr title "packets passed up, count"
scalar Multihop.hostA.udp droppedPkWrongPort:count 0
attr interpolationmode none
attr source packetDropReasonIsNoPortFound(packetDropped)
attr title "packets dropped (wrong port), count"
scalar Multihop.hostA.udp droppedPkBadChecksum:count 0
attr interpolationmode none
attr source packetDropReasonIsIncorrectlyReceived(packetDropped)
attr title "packets dropped (checksum error), count"
scalar Multihop.hostA.app[0] "packets sent" 1978
scalar Multihop.hostA.app[0] "packets received" 0
scalar Multihop.hostA.app[0] packetReceived:count 0
attr interpolationmode none
attr source packetReceived
attr title "packets received, count"
scalar Multihop.hostA.app[0] packetReceived:sum(packetBytes) 0
attr interpolationmode none
attr source packetReceived
attr title "packets received, sum(packetBytes)"
statistic Multihop.hostA.app[0] rcvdPkLifetime:stats
field count 0
field mean nan
field stddev nan
field min nan
field max nan
field sum 0
field sqrsum 0
attr interpolationmode none
attr source dataAge(packetReceived)
attr title "received packet lifetime, stats"
attr unit s
scalar Multihop.hostA.app[0] packetSent:count 1978
attr interpolationmode none
attr source packetSent
attr title "packets sent, count"
scalar Multihop.hostA.app[0] packetSent:sum(packetBytes) 1978000
attr interpolationmode none
attr source packetSent
attr title "packets sent, sum(packetBytes)"
scalar Multihop.hostA.app[1] "packets sent" 1958
scalar Multihop.hostA.app[1] "packets received" 0
scalar Multihop.hostA.app[1] packetReceived:count 0
attr interpolationmode none
attr source packetReceived
attr title "packets received, count"
scalar Multihop.hostA.app[1] packetReceived:sum(packetBytes) 0
attr interpolationmode none
attr source packetReceived
attr title "packets received, sum(packetBytes)"
statistic Multihop.hostA.app[1] rcvdPkLifetime:stats
field count 0
field mean nan
field stddev nan
field min nan
field max nan
field sum 0
field sqrsum 0
attr interpolationmode none
attr source dataAge(packetReceived)
attr title "received packet lifetime, stats"
attr unit s
scalar Multihop.hostA.app[1] packetSent:count 1958
attr interpolationmode none
attr source packetSent
attr title "packets sent, count"
scalar Multihop.hostA.app[1] packetSent:sum(packetBytes) 1958000
attr interpolationmode none
attr source packetSent
attr title "packets sent, sum(packetBytes)"
scalar Multihop.hostB.lo[0].lo rcvdPkFromHl:count 0
attr interpolationmode none
attr source packetReceivedFromUpper
attr title "packets received from higher layer, count"
scalar Multihop.hostB.lo[0].lo rcvdPkFromHl:sum(packetBytes) 0
attr interpolationmode none
attr source packetReceivedFromUpper
attr title "packets received from higher layer, sum(packetBytes)"
scalar Multihop.hostB.lo[0].lo passedUpPk:count 0
attr interpolationmode none
attr source packetSentToUpper
attr title "packets passed to higher layer, count"
scalar Multihop.hostB.lo[0].lo passedUpPk:sum(packetBytes) 0
attr interpolationmode none
attr source packetSentToUpper
attr title "packets passed to higher layer, sum(packetBytes)"
scalar Multihop.hostB.wlan[0].mac.queue packetPopped:count 5
attr interpolationmode none
attr title "packet popped, count"
scalar Multihop.hostB.wlan[0].mac.queue packetPopped:sum(packetBytes) 341
attr interpolationmode none
attr title "packet popped, sum(packetBytes)"
statistic Multihop.hostB.wlan[0].mac.queue queueingTime:histogram
field count 5
field mean 0
field stddev 0
field min 0
field max 0
field sum 0
field sqrsum 0
attr interpolationmode none
attr source queueingTime(packetPopped)
attr title "queueing times, histogram"
attr unit s
bin	-inf	0
bin	-0.5	0
bin	-0.48	0
bin	-0.46	0
bin	-0.44	0
bin	-0.42	0
bin	-0.4	0
bin	-0.38	0
bin	-0.36	0
bin	-0.34	0
bin	-0.32	0
bin	-0.3	0
bin	-0.28	0
bin	-0.26	0
bin	-0.24	0
bin	-0.22	0
bin	-0.2	0
bin	-0.18	0
bin	-0.16	0
bin	-0.14	0
bin	-0.12	0
bin	-0.1	0
bin	-0.08	0
bin	-0.06	0
bin	-0.04	0
bin	-0.02	0
bin	0	5
bin	0.02	0
bin	0.04	0
bin	0.06	0
bin	0.08	0
bin	0.1	0
bin	0.12	0
bin	0.14	0
bin	0.16	0
bin	0.18	0
bin	0.2	0
bin	0.22	0
bin	0.24	0
bin	0.26	0
bin	0.28	0
bin	0.3	0
bin	0.32	0
bin	0.34	0
bin	0.36	0
bin	0.38	0
bin	0.4	0
bin	0.42	0
bin	0.44	0
bin	0.46	0
bin	0.48	0
bin	0.5	0
scalar Multihop.hostB.wlan[0].mac.queue queueLength:max 1
attr interpolationmode sample-hold
attr source "count(packetPushed) - count(packetPopped) - count(packetRemoved) - count(packetDropped)"
attr title "queue length, max"
scalar Multihop.hostB.wlan[0].mac.queue queueLength:timeavg 0
attr interpolationmode sample-hold
attr source "count(packetPushed) - count(packetPopped) - count(packetRemoved) - count(packetDropped)"
attr title "queue length, timeavg"
scalar Multihop.hostB.wlan[0].mac.queue packetPushed:count 5
attr interpolationmode none
attr title "packet pushed, count"
scalar Multihop.hostB.wlan[0].mac.queue packetPushed:sum(packetBytes) 341
attr interpolationmode none
attr title "packet pushed, sum(packetBytes)"
scalar Multihop.hostB.wlan[0].mac.queue packetDropQueueOverflow:count 0
attr interpolationmode none
attr source packetDropReasonIsQueueOverflow(packetDropped)
attr title "packet drops: queue overflow, count"
scalar Multihop.hostB.wlan[0].mac.queue packetDropQueueOverflow:sum(packetBytes) 0
attr interpolationmode none
attr source packetDropReasonIsQueueOverflow(packetDropped)
attr title "packet drops: queue overflow, sum(packetBytes)"
scalar Multihop.hostB.wlan[0].mac.queue packetRemoved:count 0
attr interpolationmode none
attr title "packets removed, count"
scalar Multihop.hostB.wlan[0].mac.queue packetRemoved:sum(packetBytes) 0
attr interpolationmode none
attr title "packets removed, sum(packetBytes)"
scalar Multihop.hostB.wlan[0].mac numRetry 1
scalar Multihop.hostB.wlan[0].mac numSentWithoutRetry 2
scalar Multihop.hostB.wlan[0].mac numGivenUp 0
scalar Multihop.hostB.wlan[0].mac numCollision 0
scalar Multihop.hostB.wlan[0].mac numSent 3
scalar Multihop.hostB.wlan[0].mac numReceived 786
scalar Multihop.hostB.wlan[0].mac numSentBroadcast 2
scalar Multihop.hostB.wlan[0].mac numReceivedBroadcast 7
scalar Multihop.hostB.wlan[0].mac packetDropIncorrectlyReceived:count 0
attr interpolationmode none
attr source packetDropReasonIsIncorrectlyReceived(packetDropped)
attr title "packet drop: incorrectly received, count"
scalar Multihop.hostB.wlan[0].mac packetDropIncorrectlyReceived:sum(packetBytes) 0
attr interpolationmode none
attr source packetDropReasonIsIncorrectlyReceived(packetDropped)
attr title "packet drop: incorrectly received, sum(packetBytes)"
scalar Multihop.hostB.wlan[0].mac packetDropNotAddressedToUs:count 11
attr interpolationmode none
attr source packetDropReasonIsNotAddressedToUs(packetDropped)
attr title "packet drop: not addressed to us, count"
scalar Multihop.hostB.wlan[0].mac packetDropNotAddressedToUs:sum(packetBytes) 759
attr interpolationmode none
attr source packetDropReasonIsNotAddressedToUs(packetDropped)
attr title "packet drop: not addressed to us, sum(packetBytes)"
scalar Multihop.hostB.wlan[0].mac packetDropQueueOverflow:count 0
attr interpolationmode none
attr source packetDropReasonIsQueueOverflow(packetDropped)
attr title "packet drop: queue overflow, count"
scalar Multihop.hostB.wlan[0].mac packetDropQueueOverflow:sum(packetBytes) 0
attr interpolationmode none
attr source packetDropReasonIsQueueOverflow(packetDropped)
attr title "packet drop: queue overflow, sum(packetBytes)"
scalar Multihop.hostB.wlan[0].mac packetDropRetryLimitReached:count 0
attr interpolationmode none
attr source packetDropReasonIsRetryLimitReached(packetDropped)
attr title "packet drop: retry limit reached, count"
scalar Multihop.hostB.wlan[0].mac packetDropRetryLimitReached:sum(packetBytes) 0
attr interpolationmode none
attr source packetDropReasonIsRetryLimitReached(packetDropped)
attr title "packet drop: retry limit reached, sum(packetBytes)"
scalar Multihop.hostB.wlan[0].mac linkBroken:count 0
attr interpolationmode none
attr source linkBroken
attr title "link break, count"
statistic Multihop.hostB.wlan[0].radio minSnir:histogram
field count 1495
field mean 1885.6847685516
field stddev 1644.9363379453
field min 806.60907839335
field max 4391.5383156971
field sum 2819098.7289847
field sqrsum 9358419974.7937
attr source minimumSnir(packetSentToUpper)
attr title "Min SNIR, histogram"
bin	-inf	0
bin	800	1045
bin	850	0
bin	900	0
bin	950	0
bin	1000	0
bin	1050	0
bin	1100	0
bin	1150	0
bin	1200	0
bin	1250	0
bin	1300	0
bin	1350	0
bin	1400	0
bin	1450	0
bin	1500	0
bin	1550	0
bin	1600	0
bin	1650	0
bin	1700	0
bin	1750	0
bin	1800	0
bin	1850	0
bin	1900	0
bin	1950	0
bin	2000	0
bin	2050	0
bin	2100	0
bin	2150	0
bin	2200	0
bin	2250	0
bin	2300	0
bin	2350	0
bin	2400	0
bin	2450	0
bin	2500	0
bin	2550	0
bin	2600	0
bin	2650	0
bin	2700	0
bin	2750	0
bin	2800	0
bin	2850	0
bin	2900	0
bin	2950	0
bin	3000	0
bin	3050	0
bin	3100	0
bin	3150	0
bin	3200	0
bin	3250	0
bin	3300	0
bin	3350	0
bin	3400	0
bin	3450	0
bin	3500	0
bin	3550	0
bin	3600	0
bin	3650	0
bin	3700	0
bin	3750	0
bin	3800	0
bin	3850	0
bin	3900	0
bin	3950	0
bin	4000	0
bin	4050	0
bin	4100	0
bin	4150	0
bin	4200	0
bin	4250	0
bin	4300	0
bin	4350	450
bin	4400	0
statistic Multihop.hostB.wlan[0].radio packetErrorRate:histogram
field count 1495
field mean 0
field stddev 0
field min 0
field max 0
field sum 0
field sqrsum 0
attr source packetErrorRate(packetSentToUpper)
attr title "Packet error rate, histogram"
bin	-inf	0
bin	-0.5	0
bin	-0.48	0
bin	-0.46	0
bin	-0.44	0
bin	-0.42	0
bin	-0.4	0
bin	-0.38	0
bin	-0.36	0
bin	-0.34	0
bin	-0.32	0
bin	-0.3	0
bin	-0.28	0
bin	-0.26	0
bin	-0.24	0
bin	-0.22	0
bin	-0.2	0
bin	-0.18	0
bin	-0.16	0
bin	-0.14	0
bin	-0.12	0
bin	-0.1	0
bin	-0.08	0
bin	-0.06	0
bin	-0.04	0
bin	-0.02	0
bin	0	1495
bin	0.02	0
bin	0.04	0
bin	0.06	0
bin	0.08	0
bin	0.1	0
bin	0.12	0
bin	0.14	0
bin	0.16	0
bin	0.18	0
bin	0.2	0
bin	0.22	0
bin	0.24	0
bin	0.26	0
bin	0.28	0
bin	0.3	0
bin	0.32	0
bin	0.34	0
bin	0.36	0
bin	0.38	0
bin	0.4	0
bin	0.42	0
bin	0.44	0
bin	0.46	0
bin	0.48	0
bin	0.5	0
statistic Multihop.hostB.wlan[0].radio bitErrorRate:histogram
field count 1495
field mean 0
field stddev 0
field min 0
field max 0
field sum 0
field sqrsum 0
attr source bitErrorRate(packetSentToUpper)
attr title "Bit error rate, histogram"
bin	-inf	0
bin	-0.5	0
bin	-0.48	0
bin	-0.46	0
bin	-0.44	0
bin	-0.42	0
bin	-0.4	0
bin	-0.38	0
bin	-0.36	0
bin	-0.34	0
bin	-0.32	0
bin	-0.3	0
bin	-0.28	0
bin	-0.26	0
bin	-0.24	0
bin	-0.22	0
bin	-0.2	0
bin	-0.18	0
bin	-0.16	0
bin	-0.14	0
bin	-0.12	0
bin	-0.1	0
bin	-0.08	0
bin	-0.06	0
bin	-0.04	0
bin	-0.02	0
bin	0	1495
bin	0.02	0
bin	0.04	0
bin	0.06	0
bin	0.08	0
bin	0.1	0
bin	0.12	0
bin	0.14	0
bin	0.16	0
bin	0.18	0
bin	0.2	0
bin	0.22	0
bin	0.24	0
bin	0.26	0
bin	0.28	0
bin	0.3	0
bin	0.32	0
bin	0.34	0
bin	0.36	0
bin	0.38	0
bin	0.4	0
bin	0.42	0
bin	0.44	0
bin	0.46	0
bin	0.48	0
bin	0.5	0
statistic Multihop.hostB.wlan[0].radio symbolErrorRate:histogram
field count 1495
field mean 0
field stddev 0
field min 0
field max 0
field sum 0
field sqrsum 0
attr source symbolErrorRate(packetSentToUpper)
attr title "Symbol error rate, histogram"
bin	-inf	0
bin	-0.5	0
bin	-0.48	0
bin	-0.46	0
bin	-0.44	0
bin	-0.42	0
bin	-0.4	0
bin	-0.38	0
bin	-0.36	0
bin	-0.34	0
bin	-0.32	0
bin	-0.3	0
bin	-0.28	0
bin	-0.26	0
bin	-0.24	0
bin	-0.22	0
bin	-0.2	0
bin	-0.18	0
bin	-0.16	0
bin	-0.14	0
bin	-0.12	0
bin	-0.1	0
bin	-0.08	0
bin	-0.06	0
bin	-0.04	0
bin	-0.02	0
bin	0	1495
bin	0.02	0
bin	0.04	0
bin	0.06	0
bin	0.08	0
bin	0.1	0
bin	0.12	0
bin	0.14	0
bin	0.16	0
bin	0.18	0
bin	0.2	0
bin	0.22	0
bin	0.24	0
bin	0.26	0
bin	0.28	0
bin	0.3	0
bin	0.32	0
bin	0.34	0
bin	0.36	0
bin	0.38	0
bin	0.4	0
bin	0.42	0
bin	0.44	0
bin	0.46	0
bin	0.48	0
bin	0.5	0
scalar Multihop.hostB.wlan[0].radio transmissionState:count 3168
attr interpolationmode sample-hold
attr source transmissionStateChanged
attr title "Radio transmission state, count"
scalar Multihop.hostB.wlan[0].radio receptionState:count 4575
attr interpolationmode sample-hold
attr source receptionStateChanged
attr title "Radio reception state, count"
scalar Multihop.hostB.wlan[0].radio radioMode:count 1587
attr interpolationmode sample-hold
attr source radioModeChanged
attr title "Radio mode, count"
scalar Multihop.hostB.ipv4.ip packetDropAddressResolutionFailed:count 0
attr interpolationmode none
attr source packetDropReasonIsAddressResolutionFailed(packetDropped)
attr title "packet drop: address resolution failed, count"
scalar Multihop.hostB.ipv4.ip packetDropAddressResolutionFailed:sum(packetBytes) 0
attr interpolationmode none
attr source packetDropReasonIsAddressResolutionFailed(packetDropped)
attr title "packet drop: address resolution failed, sum(packetBytes)"
scalar Multihop.hostB.ipv4.ip packetDropHopLimitReached:count 0
attr interpolationmode none
attr source packetDropReasonIsHopLimitReached(packetDropped)
attr title "packet drop: hop limit reached, count"
scalar Multihop.hostB.ipv4.ip packetDropHopLimitReached:sum(packetBytes) 0
attr interpolationmode none
attr source packetDropReasonIsHopLimitReached(packetDropped)
attr title "packet drop: hop limit reached, sum(packetBytes)"
scalar Multihop.hostB.ipv4.ip packetDropForwardingDisabled:count 0
attr interpolationmode none
attr source packetDropReasonIsForwardingDisabled(packetDropped)
attr title "packet drop: forwarding disabled, count"
scalar Multihop.hostB.ipv4.ip packetDropForwardingDisabled:sum(packetBytes) 0
attr interpolationmode none
attr source packetDropReasonIsForwardingDisabled(packetDropped)
attr title "packet drop: forwarding disabled, sum(packetBytes)"
scalar Multihop.hostB.ipv4.ip packetDropNoInterfaceFound:count 0
attr interpolationmode none
attr source packetDropReasonIsNoInterfaceFound(packetDropped)
attr title "packet drop: no interface found, count"
scalar Multihop.hostB.ipv4.ip packetDropNoInterfaceFound:sum(packetBytes) 0
attr interpolationmode none
attr source packetDropReasonIsNoInterfaceFound(packetDropped)
attr title "packet drop: no interface found, sum(packetBytes)"
scalar Multihop.hostB.ipv4.ip packetDropNoRouteFound:count 0
attr interpolationmode none
attr source packetDropReasonIsNoRouteFound(packetDropped)
attr title "packet drop: no route found, count"
scalar Multihop.hostB.ipv4.ip packetDropNoRouteFound:sum(packetBytes) 0
attr interpolationmode none
attr source packetDropReasonIsNoRouteFound(packetDropped)
attr title "packet drop: no route found, sum(packetBytes)"
scalar Multihop.hostB.ipv4.ip packetDropUndefined:count 0
attr interpolationmode none
attr source packetDropReasonIsUndefined(packetDropped)
attr title "packet drop: undefined, count"
scalar Multihop.hostB.ipv4.ip packetDropUndefined:sum(packetBytes) 0
attr interpolationmode none
attr source packetDropReasonIsUndefined(packetDropped)
attr title "packet drop: undefined, sum(packetBytes)"
scalar Multihop.hostB.udp packetReceived:count 793
attr interpolationmode none
attr source packetReceived
attr title "packets received, count"
scalar Multihop.hostB.udp packetReceived:sum(packetBytes) 792516
attr interpolationmode none
attr source packetReceived
attr title "packets received, sum(packetBytes)"
scalar Multihop.hostB.udp packetSent:count 5
attr interpolationmode none
attr source packetSent
attr title "packets sent, count"
scalar Multihop.hostB.udp packetSent:sum(packetBytes) 136
attr interpolationmode none
attr source packetSent
attr title "packets sent, sum(packetBytes)"
scalar Multihop.hostB.udp passedUpPk:count 793
attr interpolationmode none
attr source packetSentToUpper
attr title "packets passed up, count"
scalar Multihop.hostB.udp droppedPkWrongPort:count 0
attr interpolationmode none
attr source packetDropReasonIsNoPortFound(packetDropped)
attr title "packets dropped (wrong port), count"
scalar Multihop.hostB.udp droppedPkBadChecksum:count 0
attr interpolationmode none
attr source packetDropReasonIsIncorrectlyReceived(packetDropped)
attr title "packets dropped (checksum error), count"
scalar Multihop.hostB.app[0] packetReceived:count 786
attr interpolationmode none
attr source packetReceived
attr title "packets received, count"
scalar Multihop.hostB.app[0] packetReceived:sum(packetBytes) 786000
attr interpolationmode none
attr source packetReceived
attr title "packets received, sum(packetBytes)"
statistic Multihop.hostB.app[0] endToEndDelay:histogram
field count 786
field mean 9.1853614548101
field stddev 4.5826681479105
field min 0.364291681868
field max 16.857219581754
field sum 7219.6941034807
field sqrsum 82801.165106422
attr interpolationmode none
attr source dataAge(packetReceived)
attr title "end-to-end delay, histogram"
attr unit s
bin	-inf	0
bin	0	0
bin	0.2	1
bin	0.4	4
bin	0.6	1
bin	0.8	9
bin	1	7
bin	1.2	8
bin	1.4	13
bin	1.6	12
bin	1.8	4
bin	2	1
bin	2.2	0
bin	2.4	0
bin	2.6	1
bin	2.8	0
bin	3	8
bin	3.2	7
bin	3.4	13
bin	3.6	15
bin	3.8	13
bin	4	11
bin	4.2	9
bin	4.4	11
bin	4.6	17
bin	4.8	12
bin	5	10
bin	5.2	11
bin	5.4	11
bin	5.6	15
bin	5.8	11
bin	6	9
bin	6.2	15
bin	6.4	14
bin	6.6	8
bin	6.8	10
bin	7	15
bin	7.2	11
bin	7.4	12
bin	7.6	7
bin	7.8	11
bin	8	13
bin	8.2	10
bin	8.4	14
bin	8.6	11
bin	8.8	11
bin	9	11
bin	9.2	3
bin	9.4	1
bin	9.6	5
bin	9.8	16
bin	10	7
bin	10.2	7
bin	10.4	9
bin	10.6	1
bin	10.8	0
bin	11	6
bin	11.2	7
bin	11.4	13
bin	11.6	7
bin	11.8	14
bin	12	13
bin	12.2	16
bin	12.4	9
bin	12.6	13
bin	12.8	9
bin	13	10
bin	13.2	16
bin	13.4	11
bin	13.6	9
bin	13.8	11
bin	14	7
bin	14.2	12
bin	14.4	7
bin	14.6	16
bin	14.8	12
bin	15	10
bin	15.2	13
bin	15.4	14
bin	15.6	11
bin	15.8	12
bin	16	4
bin	16.2	10
bin	16.4	11
bin	16.6	12
bin	16.8	5
bin	17	0
bin	17.2	0
bin	17.4	0
bin	17.6	0
bin	17.8	0
bin	18	0
bin	18.2	0
bin	18.4	0
bin	18.6	0
bin	18.8	0
bin	19	0
bin	19.2	0
bin	19.4	0
bin	19.6	0
bin	19.8	0
bin	20	0
bin	20.2	0
bin	20.4	0
bin	20.6	0
bin	20.8	0
bin	21	0
scalar Multihop.hostC.lo[0].lo rcvdPkFromHl:count 0
attr interpolationmode none
attr source packetReceivedFromUpper
attr title "packets received from higher layer, count"
scalar Multihop.hostC.lo[0].lo rcvdPkFromHl:sum(packetBytes) 0
attr interpolationmode none
attr source packetReceivedFromUpper
attr title "packets received from higher layer, sum(packetBytes)"
scalar Multihop.hostC.lo[0].lo passedUpPk:count 0
attr interpolationmode none
attr source packetSentToUpper
attr title "packets passed to higher layer, count"
scalar Multihop.hostC.lo[0].lo passedUpPk:sum(packetBytes) 0
attr interpolationmode none
attr source packetSentToUpper
attr title "packets passed to higher layer, sum(packetBytes)"
scalar Multihop.hostC.wlan[0].mac.queue packetPopped:count 392
attr interpolationmode none
attr title "packet popped, count"
scalar Multihop.hostC.wlan[0].mac.queue packetPopped:sum(packetBytes) 401436
attr interpolationmode none
attr title "packet popped, sum(packetBytes)"
statistic Multihop.hostC.wlan[0].mac.queue queueingTime:histogram
field count 392
field mean 2.0938642786812
field stddev 1.7693967032991
field min 0
field max 4.879639395132
field sum 820.79479724304
field sqrsum 2942.76190129
attr interpolationmode none
attr source queueingTime(packetPopped)
attr title "queueing times, histogram"
attr unit s
bin	-inf	0
bin	0	36
bin	0.08	35
bin	0.16	11
bin	0.24	22
bin	0.32	25
bin	0.4	11
bin	0.48	3
bin	0.56	3
bin	0.64	13
bin	0.72	9
bin	0.8	0
bin	0.88	0
bin	0.96	3
bin	1.04	1
bin	1.12	1
bin	1.2	2
bin	1.28	0
bin	1.36	0
bin	1.44	0
bin	1.52	0
bin	1.6	0
bin	1.68	0
bin	1.76	3
bin	1.84	2
bin	1.92	1
bin	2	1
bin	2.08	7
bin	2.16	9
bin	2.24	9
bin	2.32	9
bin	2.4	5
bin	2.48	11
bin	2.56	10
bin	2.64	0
bin	2.72	3
bin	2.8	4
bin	2.88	1
bin	2.96	2
bin	3.04	9
bin	3.12	4
bin	3.2	2
bin	3.28	3
bin	3.36	1
bin	3.44	10
bin	3.52	0
bin	3.6	1
bin	3.68	1
bin	3.76	6
bin	3.84	5
bin	3.92	2
bin	4	0
bin	4.08	13
bin	4.16	8
bin	4.24	3
bin	4.32	9
bin	4.4	9
bin	4.48	10
bin	4.56	22
bin	4.64	9
bin	4.72	7
bin	4.8	6
bin	4.88	0
scalar Multihop.hostC.wlan[0].mac.queue queueLength:max 161
attr interpolationmode sample-hold
attr source "count(packetPushed) - count(packetPopped) - count(packetRemoved) - count(packetDropped)"
attr title "queue length, max"
scalar Multihop.hostC.wlan[0].mac.queue queueLength:timeavg 57.775697112225
attr interpolationmode sample-hold
attr source "count(packetPushed) - count(packetPopped) - count(packetRemoved) - count(packetDropped)"
attr title "queue length, timeavg"
scalar Multihop.hostC.wlan[0].mac.queue packetPushed:count 534
attr interpolationmode none
attr title "packet pushed, count"
scalar Multihop.hostC.wlan[0].mac.queue packetPushed:sum(packetBytes) 550394
attr interpolationmode none
attr title "packet pushed, sum(packetBytes)"
scalar Multihop.hostC.wlan[0].mac.queue packetDropQueueOverflow:count 0
attr interpolationmode none
attr source packetDropReasonIsQueueOverflow(packetDropped)
attr title "packet drops: queue overflow, count"
scalar Multihop.hostC.wlan[0].mac.queue packetDropQueueOverflow:sum(packetBytes) 0
attr interpolationmode none
attr source packetDropReasonIsQueueOverflow(packetDropped)
attr title "packet drops: queue overflow, sum(packetBytes)"
scalar Multihop.hostC.wlan[0].mac.queue packetRemoved:count 0
attr interpolationmode none
attr title "packets removed, count"
scalar Multihop.hostC.wlan[0].mac.queue packetRemoved:sum(packetBytes) 0
attr interpolationmode none
attr title "packets removed, sum(packetBytes)"
scalar Multihop.hostC.wlan[0].mac numRetry 152
scalar Multihop.hostC.wlan[0].mac numSentWithoutRetry 272
scalar Multihop.hostC.wlan[0].mac numGivenUp 0
scalar Multihop.hostC.wlan[0].mac numCollision 349
scalar Multihop.hostC.wlan[0].mac numSent 384
scalar Multihop.hostC.wlan[0].mac numReceived 526
scalar Multihop.hostC.wlan[0].mac numSentBroadcast 7
scalar Multihop.hostC.wlan[0].mac numReceivedBroadcast 18
scalar Multihop.hostC.wlan[0].mac packetDropIncorrectlyReceived:count 349
attr interpolationmode none
attr source packetDropReasonIsIncorrectlyReceived(packetDropped)
attr title "packet drop: incorrectly received, count"
scalar Multihop.hostC.wlan[0].mac packetDropIncorrectlyReceived:sum(packetBytes) 362197
attr interpolationmode none
attr source packetDropReasonIsIncorrectlyReceived(packetDropped)
attr title "packet drop: incorrectly received, sum(packetBytes)"
scalar Multihop.hostC.wlan[0].mac packetDropNotAddressedToUs:count 620
attr interpolationmode none
attr source packetDropReasonIsNotAddressedToUs(packetDropped)
attr title "packet drop: not addressed to us, count"
scalar Multihop.hostC.wlan[0].mac packetDropNotAddressedToUs:sum(packetBytes) 649400
attr interpolationmode none
attr source packetDropReasonIsNotAddressedToUs(packetDropped)
attr title "packet drop: not addressed to us, sum(packetBytes)"
scalar Multihop.hostC.wlan[0].mac packetDropQueueOverflow:count 0
attr interpolationmode none
attr source packetDropReasonIsQueueOverflow(packetDropped)
attr title "packet drop: queue overflow, count"
scalar Multihop.hostC.wlan[0].mac packetDropQueueOverflow:sum(packetBytes) 0
attr interpolationmode none
attr source packetDropReasonIsQueueOverflow(packetDropped)
attr title "packet drop: queue overflow, sum(packetBytes)"
scalar Multihop.hostC.wlan[0].mac packetDropRetryLimitReached:count 0
attr interpolationmode none
attr source packetDropReasonIsRetryLimitReached(packetDropped)
attr title "packet drop: retry limit reached, count"
scalar Multihop.hostC.wlan[0].mac packetDropRetryLimitReached:sum(packetBytes) 0
attr interpolationmode none
attr source packetDropReasonIsRetryLimitReached(packetDropped)
attr title "packet drop: retry limit reached, sum(packetBytes)"
scalar Multihop.hostC.wlan[0].mac linkBroken:count 0
attr interpolationmode none
attr source linkBroken
attr title "link break, count"
statistic Multihop.hostC.wlan[0].radio minSnir:histogram
field count 2185
field mean 1925.1995827955
field stddev 1796.2611732822
field min 0.14059298548131
field max 4391.5383156971
field sum 4206561.0884081
field sqrsum 15145264030.976
attr source minimumSnir(packetSentToUpper)
attr title "Min SNIR, histogram"
bin	-inf	0
bin	0	650
bin	100	0
bin	200	0
bin	300	0
bin	400	0
bin	500	0
bin	600	421
bin	700	0
bin	800	0
bin	900	0
bin	1000	0
bin	1100	0
bin	1200	0
bin	1300	0
bin	1400	0
bin	1500	0
bin	1600	0
bin	1700	0
bin	1800	0
bin	1900	0
bin	2000	0
bin	2100	0
bin	2200	0
bin	2300	0
bin	2400	493
bin	2500	0
bin	2600	0
bin	2700	0
bin	2800	0
bin	2900	0
bin	3000	0
bin	3100	0
bin	3200	0
bin	3300	0
bin	3400	0
bin	3500	0
bin	3600	0
bin	3700	0
bin	3800	0
bin	3900	0
bin	4000	0
bin	4100	0
bin	4200	0
bin	4300	621
bin	4400	0
bin	4500	0
bin	4600	0
bin	4700	0
bin	4800	0
bin	4900	0
statistic Multihop.hostC.wlan[0].radio packetErrorRate:histogram
field count 2185
field mean 0.19789206699908
field stddev 0.3983612474331
field min 0
field max 1
field sum 432.39416639299
field sqrsum 432.15001201475
attr source packetErrorRate(packetSentToUpper)
attr title "Packet error rate, histogram"
bin	-inf	0
bin	-0.5	0
bin	-0.48	0
bin	-0.46	0
bin	-0.44	0
bin	-0.42	0
bin	-0.4	0
bin	-0.38	0
bin	-0.36	0
bin	-0.34	0
bin	-0.32	0
bin	-0.3	0
bin	-0.28	0
bin	-0.26	0
bin	-0.24	0
bin	-0.22	0
bin	-0.2	0
bin	-0.18	0
bin	-0.16	0
bin	-0.14	0
bin	-0.12	0
bin	-0.1	0
bin	-0.08	0
bin	-0.06	0
bin	-0.04	0
bin	-0.02	0
bin	0	1752
bin	0.02	0
bin	0.04	0
bin	0.06	0
bin	0.08	0
bin	0.1	0
bin	0.12	0
bin	0.14	0
bin	0.16	0
bin	0.18	0
bin	0.2	0
bin	0.22	0
bin	0.24	0
bin	0.26	0
bin	0.28	0
bin	0.3	0
bin	0.32	0
bin	0.34	0
bin	0.36	0
bin	0.38	1
bin	0.4	0
bin	0.42	0
bin	0.44	0
bin	0.46	0
bin	0.48	0
bin	0.5	0
bin	0.52	0
bin	0.54	0
bin	0.56	0
bin	0.58	0
bin	0.6	0
bin	0.62	0
bin	0.64	0
bin	0.66	0
bin	0.68	0
bin	0.7	0
bin	0.72	0
bin	0.74	0
bin	0.76	0
bin	0.78	0
bin	0.8	0
bin	0.82	0
bin	0.84	0
bin	0.86	0
bin	0.88	0
bin	0.9	0
bin	0.92	0
bin	0.94	0
bin	0.96	0
bin	0.98	87
bin	1	345
bin	1.02	0
statistic Multihop.hostC.wlan[0].radio bitErrorRate:histogram
field count 2185
field mean 0.023144741690277
field stddev 0.04679331068436
field min 0
field max 0.11786661866713
field sum 50.571260593255
field sqrsum 5.9525755751524
attr source bitErrorRate(packetSentToUpper)
attr title "Bit error rate, histogram"
bin	-inf	0
bin	-0.5	0
bin	-0.48	0
bin	-0.46	0
bin	-0.44	0
bin	-0.42	0
bin	-0.4	0
bin	-0.38	0
bin	-0.36	0
bin	-0.34	0
bin	-0.32	0
bin	-0.3	0
bin	-0.28	0
bin	-0.26	0
bin	-0.24	0
bin	-0.22	0
bin	-0.2	0
bin	-0.18	0
bin	-0.16	0
bin	-0.14	0
bin	-0.12	0
bin	-0.1	0
bin	-0.08	0
bin	-0.06	0
bin	-0.04	0
bin	-0.02	0
bin	0	1755
bin	0.02	0
bin	0.04	2
bin	0.06	0
bin	0.08	0
bin	0.1	428
bin	0.12	0
bin	0.14	0
bin	0.16	0
bin	0.18	0
bin	0.2	0
bin	0.22	0
bin	0.24	0
bin	0.26	0
bin	0.28	0
bin	0.3	0
bin	0.32	0
bin	0.34	0
bin	0.36	0
bin	0.38	0
bin	0.4	0
bin	0.42	0
bin	0.44	0
bin	0.46	0
bin	0.48	0
bin	0.5	0
statistic Multihop.hostC.wlan[0].radio symbolErrorRate:histogram
field count 2185
field mean 0.043565192499477
field stddev 0.088073437630211
field min 0
field max 0.22184069753823
field sum 95.189945611358
field sqrsum 21.088104333124
attr source symbolErrorRate(packetSentToUpper)
attr title "Symbol error rate, histogram"
bin	-inf	0
bin	-0.5	0
bin	-0.48	0
bin	-0.46	0
bin	-0.44	0
bin	-0.42	0
bin	-0.4	0
bin	-0.38	0
bin	-0.36	0
bin	-0.34	0
bin	-0.32	0
bin	-0.3	0
bin	-0.28	0
bin	-0.26	0
bin	-0.24	0
bin	-0.22	0
bin	-0.2	0
bin	-0.18	0
bin	-0.16	0
bin	-0.14	0
bin	-0.12	0
bin	-0.1	0
bin	-0.08	0
bin	-0.06	0
bin	-0.04	0
bin	-0.02	0
bin	0	1755
bin	0.02	0
bin	0.04	0
bin	0.06	0
bin	0.08	0
bin	0.1	2
bin	0.12	0
bin	0.14	0
bin	0.16	0
bin	0.18	0
bin	0.2	0
bin	0.22	428
bin	0.24	0
bin	0.26	0
bin	0.28	0
bin	0.3	0
bin	0.32	0
bin	0.34	0
bin	0.36	0
bin	0.38	0
bin	0.4	0
bin	0.42	0
bin	0.44	0
bin	0.46	0
bin	0.48	0
bin	0.5	0
scalar Multihop.hostC.wlan[0].radio transmissionState:count 4278
attr interpolationmode sample-hold
attr source transmissionStateChanged
attr title "Radio transmission state, count"
scalar Multihop.hostC.wlan[0].radio receptionState:count 6719
attr interpolationmode sample-hold
attr source receptionStateChanged
attr title "Radio reception state, count"
scalar Multihop.hostC.wlan[0].radio radioMode:count 2142
attr interpolationmode sample-hold
attr source radioModeChanged
attr title "Radio mode, count"
scalar Multihop.hostC.ipv4.ip packetDropAddressResolutionFailed:count 0
attr interpolationmode none
attr source packetDropReasonIsAddressResolutionFailed(packetDropped)
attr title "packet drop: address resolution failed, count"
scalar Multihop.hostC.ipv4.ip packetDropAddressResolutionFailed:sum(packetBytes) 0
attr interpolationmode none
attr source packetDropReasonIsAddressResolutionFailed(packetDropped)
attr title "packet drop: address resolution failed, sum(packetBytes)"
scalar Multihop.hostC.ipv4.ip packetDropHopLimitReached:count 0
attr interpolationmode none
attr source packetDropReasonIsHopLimitReached(packetDropped)
attr title "packet drop: hop limit reached, count"
scalar Multihop.hostC.ipv4.ip packetDropHopLimitReached:sum(packetBytes) 0
attr interpolationmode none
attr source packetDropReasonIsHopLimitReached(packetDropped)
attr title "packet drop: hop limit reached, sum(packetBytes)"
scalar Multihop.hostC.ipv4.ip packetDropForwardingDisabled:count 0
attr interpolationmode none
attr source packetDropReasonIsForwardingDisabled(packetDropped)
attr title "packet drop: forwarding disabled, count"
scalar Multihop.hostC.ipv4.ip packetDropForwardingDisabled:sum(packetBytes) 0
attr interpolationmode none
attr source packetDropReasonIsForwardingDisabled(packetDropped)
attr title "packet drop: forwarding disabled, sum(packetBytes)"
scalar Multihop.hostC.ipv4.ip packetDropNoInterfaceFound:count 0
attr interpolationmode none
attr source packetDropReasonIsNoInterfaceFound(packetDropped)
attr title "packet drop: no interface found, count"
scalar Multihop.hostC.ipv4.ip packetDropNoInterfaceFound:sum(packetBytes) 0
attr interpolationmode none
attr source packetDropReasonIsNoInterfaceFound(packetDropped)
attr title "packet drop: no interface found, sum(packetBytes)"
scalar Multihop.hostC.ipv4.ip packetDropNoRouteFound:count 0
attr interpolationmode none
attr source packetDropReasonIsNoRouteFound(packetDropped)
attr title "packet drop: no route found, count"
scalar Multihop.hostC.ipv4.ip packetDropNoRouteFound:sum(packetBytes) 0
attr interpolationmode none
attr source packetDropReasonIsNoRouteFound(packetDropped)
attr title "packet drop: no route found, sum(packetBytes)"
scalar Multihop.hostC.ipv4.ip packetDropUndefined:count 0
attr interpolationmode none
attr source packetDropReasonIsUndefined(packetDropped)
attr title "packet drop: undefined, count"
scalar Multihop.hostC.ipv4.ip packetDropUndefined:sum(packetBytes) 0
attr interpolationmode none
attr source packetDropReasonIsUndefined(packetDropped)
attr title "packet drop: undefined, sum(packetBytes)"
scalar Multihop.hostC.udp packetReceived:count 20
attr interpolationmode none
attr source packetReceived
attr title "packets received, count"
scalar Multihop.hostC.udp packetReceived:sum(packetBytes) 636
attr interpolationmode none
attr source packetReceived
attr title "packets received, sum(packetBytes)"
scalar Multihop.hostC.udp packetSent:count 10
attr interpolationmode none
attr source packetSent
attr title "packets sent, count"
scalar Multihop.hostC.udp packetSent:sum(packetBytes) 308
attr interpolationmode none
attr source packetSent
attr title "packets sent, sum(packetBytes)"
scalar Multihop.hostC.udp passedUpPk:count 20
attr interpolationmode none
attr source packetSentToUpper
attr title "packets passed up, count"
scalar Multihop.hostC.udp droppedPkWrongPort:count 0
attr interpolationmode none
attr source packetDropReasonIsNoPortFound(packetDropped)
attr title "packets dropped (wrong port), count"
scalar Multihop.hostC.udp droppedPkBadChecksum:count 0
attr interpolationmode none
attr source packetDropReasonIsIncorrectlyReceived(packetDropped)
attr title "packets dropped (checksum error), count"
scalar Multihop.hostD.lo[0].lo rcvdPkFromHl:count 0
attr interpolationmode none
attr source packetReceivedFromUpper
attr title "packets received from higher layer, count"
scalar Multihop.hostD.lo[0].lo rcvdPkFromHl:sum(packetBytes) 0
attr interpolationmode none
attr source packetReceivedFromUpper
attr title "packets received from higher layer, sum(packetBytes)"
scalar Multihop.hostD.lo[0].lo passedUpPk:count 0
attr interpolationmode none
attr source packetSentToUpper
attr title "packets passed to higher layer, count"
scalar Multihop.hostD.lo[0].lo passedUpPk:sum(packetBytes) 0
attr interpolationmode none
attr source packetSentToUpper
attr title "packets passed to higher layer, sum(packetBytes)"
scalar Multihop.hostD.wlan[0].mac.queue packetPopped:count 208
attr interpolationmode none
attr title "packet popped, count"
scalar Multihop.hostD.wlan[0].mac.queue packetPopped:sum(packetBytes) 211356
attr interpolationmode none
attr title "packet popped, sum(packetBytes)"
statistic Multihop.hostD.wlan[0].mac.queue queueingTime:histogram
field count 208
field mean 1.9925184626897
field stddev 0.85897952195159
field min 0
field max 3.178128346
field sum 414.44384023946
field sqrsum 978.52108798551
attr interpolationmode none
attr source queueingTime(packetPopped)
attr title "queueing times, histogram"
attr unit s
bin	-inf	0
bin	0	6
bin	0.05	0
bin	0.1	0
bin	0.15	0
bin	0.2	0
bin	0.25	0
bin	0.3	0
bin	0.35	1
bin	0.4	3
bin	0.45	7
bin	0.5	1
bin	0.55	1
bin	0.6	0
bin	0.65	0
bin	0.7	1
bin	0.75	7
bin	0.8	5
bin	0.85	4
bin	0.9	3
bin	0.95	6
bin	1	5
bin	1.05	0
bin	1.1	0
bin	1.15	0
bin	1.2	0
bin	1.25	0
bin	1.3	0
bin	1.35	0
bin	1.4	0
bin	1.45	0
bin	1.5	0
bin	1.55	0
bin	1.6	1
bin	1.65	0
bin	1.7	10
bin	1.75	7
bin	1.8	8
bin	1.85	3
bin	1.9	3
bin	1.95	4
bin	2	8
bin	2.05	6
bin	2.1	8
bin	2.15	5
bin	2.2	4
bin	2.25	3
bin	2.3	3
bin	2.35	6
bin	2.4	5
bin	2.45	3
bin	2.5	5
bin	2.55	3
bin	2.6	4
bin	2.65	8
bin	2.7	4
bin	2.75	4
bin	2.8	5
bin	2.85	7
bin	2.9	8
bin	2.95	5
bin	3	2
bin	3.05	9
bin	3.1	4
bin	3.15	3
bin	3.2	0
scalar Multihop.hostD.wlan[0].mac.queue queueLength:max 142
attr interpolationmode sample-hold
attr source "count(packetPushed) - count(packetPopped) - count(packetRemoved) - count(packetDropped)"
attr title "queue length, max"
scalar Multihop.hostD.wlan[0].mac.queue queueLength:timeavg 20.742693038198
attr interpolationmode sample-hold
attr source "count(packetPushed) - count(packetPopped) - count(packetRemoved) - count(packetDropped)"
attr title "queue length, timeavg"
scalar Multihop.hostD.wlan[0].mac.queue packetPushed:count 208
attr interpolationmode none
attr title "packet pushed, count"
scalar Multihop.hostD.wlan[0].mac.queue packetPushed:sum(packetBytes) 211356
attr interpolationmode none
attr title "packet pushed, sum(packetBytes)"
scalar Multihop.hostD.wlan[0].mac.queue packetDropQueueOverflow:count 0
attr interpolationmode none
attr source packetDropReasonIsQueueOverflow(packetDropped)
attr title "packet drops: queue overflow, count"
scalar Multihop.hostD.wlan[0].mac.queue packetDropQueueOverflow:sum(packetBytes) 0
attr interpolationmode none
attr source packetDropReasonIsQueueOverflow(packetDropped)
attr title "packet drops: queue overflow, sum(packetBytes)"
scalar Multihop.hostD.wlan[0].mac.queue packetRemoved:count 0
attr interpolationmode none
attr title "packets removed, count"
scalar Multihop.hostD.wlan[0].mac.queue packetRemoved:sum(packetBytes) 0
attr interpolationmode none
attr title "packets removed, sum(packetBytes)"
scalar Multihop.hostD.wlan[0].mac numRetry 86
scalar Multihop.hostD.wlan[0].mac numSentWithoutRetry 137
scalar Multihop.hostD.wlan[0].mac numGivenUp 0
scalar Multihop.hostD.wlan[0].mac numCollision 117
scalar Multihop.hostD.wlan[0].mac numSent 202
scalar Multihop.hostD.wlan[0].mac numReceived 202
scalar Multihop.hostD.wlan[0].mac numSentBroadcast 6
scalar Multihop.hostD.wlan[0].mac numReceivedBroadcast 17
scalar Multihop.hostD.wlan[0].mac packetDropIncorrectlyReceived:count 117
attr interpolationmode none
attr source packetDropReasonIsIncorrectlyReceived(packetDropped)
attr title "packet drop: incorrectly received, count"
scalar Multihop.hostD.wlan[0].mac packetDropIncorrectlyReceived:sum(packetBytes) 118774
attr interpolationmode none
attr source packetDropReasonIsIncorrectlyReceived(packetDropped)
attr title "packet drop: incorrectly received, sum(packetBytes)"
scalar Multihop.hostD.wlan[0].mac packetDropNotAddressedToUs:count 1470
attr interpolationmode none
attr source packetDropReasonIsNotAddressedToUs(packetDropped)
attr title "packet drop: not addressed to us, count"
scalar Multihop.hostD.wlan[0].mac packetDropNotAddressedToUs:sum(packetBytes) 1539090
attr interpolationmode none
attr source packetDropReasonIsNotAddressedToUs(packetDropped)
attr title "packet drop: not addressed to us, sum(packetBytes)"
scalar Multihop.hostD.wlan[0].mac packetDropQueueOverflow:count 0
attr interpolationmode none
attr source packetDropReasonIsQueueOverflow(packetDropped)
attr title "packet drop: queue overflow, count"
scalar Multihop.hostD.wlan[0].mac packetDropQueueOverflow:sum(packetBytes) 0
attr interpolationmode none
attr source packetDropReasonIsQueueOverflow(packetDropped)
attr title "packet drop: queue overflow, sum(packetBytes)"
scalar Multihop.hostD.wlan[0].mac packetDropRetryLimitReached:count 0
attr interpolationmode none
attr source packetDropReasonIsRetryLimitReached(packetDropped)
attr title "packet drop: retry limit reached, count"
scalar Multihop.hostD.wlan[0].mac packetDropRetryLimitReached:sum(packetBytes) 0
attr interpolationmode none
attr source packetDropReasonIsRetryLimitReached(packetDropped)
attr title "packet drop: retry limit reached, sum(packetBytes)"
scalar Multihop.hostD.wlan[0].mac linkBroken:count 0
attr interpolationmode none
attr source linkBroken
attr title "link break, count"
statistic Multihop.hostD.wlan[0].radio minSnir:histogram
field count 2557
field mean 1420.780365094
field stddev 898.54661042535
field min 0.24989883622417
field max 2470.2403025796
field sum 3632935.3935455
field sqrsum 7225281919.1937
attr source minimumSnir(packetSentToUpper)
attr title "Min SNIR, histogram"
bin	-inf	0
bin	0	154
bin	50	0
bin	100	0
bin	150	0
bin	200	0
bin	250	0
bin	300	0
bin	350	0
bin	400	0
bin	450	0
bin	500	0
bin	550	0
bin	600	312
bin	650	0
bin	700	0
bin	750	0
bin	800	1037
bin	850	0
bin	900	0
bin	950	0
bin	1000	0
bin	1050	0
bin	1100	0
bin	1150	0
bin	1200	0
bin	1250	0
bin	1300	0
bin	1350	0
bin	1400	0
bin	1450	0
bin	1500	0
bin	1550	0
bin	1600	0
bin	1650	0
bin	1700	0
bin	1750	0
bin	1800	0
bin	1850	0
bin	1900	0
bin	1950	0
bin	2000	0
bin	2050	0
bin	2100	0
bin	2150	0
bin	2200	0
bin	2250	0
bin	2300	0
bin	2350	0
bin	2400	0
bin	2450	1054
bin	2500	0
bin	2550	0
bin	2600	0
bin	2650	0
bin	2700	0
bin	2750	0
bin	2800	0
bin	2850	0
bin	2900	0
bin	2950	0
bin	3000	0
bin	3050	0
bin	3100	0
statistic Multihop.hostD.wlan[0].radio packetErrorRate:histogram
field count 2557
field mean 0.045831572684434
field stddev 0.2001074050988
field min 0
field max 1
field sum 117.1913313541
field sqrsum 107.7209034796
attr source packetErrorRate(packetSentToUpper)
attr title "Packet error rate, histogram"
bin	-inf	0
bin	0	2419
bin	0.02	1
bin	0.04	0
bin	0.06	0
bin	0.08	3
bin	0.1	0
bin	0.12	0
bin	0.14	0
bin	0.16	0
bin	0.18	0
bin	0.2	0
bin	0.22	0
bin	0.24	0
bin	0.26	0
bin	0.28	0
bin	0.3	0
bin	0.32	0
bin	0.34	0
bin	0.36	0
bin	0.38	0
bin	0.4	0
bin	0.42	0
bin	0.44	21
bin	0.46	0
bin	0.48	0
bin	0.5	0
bin	0.52	0
bin	0.54	0
bin	0.56	0
bin	0.58	0
bin	0.6	0
bin	0.62	0
bin	0.64	0
bin	0.66	0
bin	0.68	0
bin	0.7	0
bin	0.72	20
bin	0.74	0
bin	0.76	0
bin	0.78	0
bin	0.8	0
bin	0.82	0
bin	0.84	0
bin	0.86	0
bin	0.88	0
bin	0.9	0
bin	0.92	0
bin	0.94	0
bin	0.96	0
bin	0.98	90
bin	1	3
bin	1.02	0
bin	1.04	0
bin	1.06	0
bin	1.08	0
bin	1.1	0
bin	1.12	0
bin	1.14	0
bin	1.16	0
bin	1.18	0
bin	1.2	0
bin	1.22	0
bin	1.24	0
bin	1.26	0
statistic Multihop.hostD.wlan[0].radio bitErrorRate:histogram
field count 2557
field mean 0.00017484807430488
field stddev 0.0016034888046195
field min 0
field max 0.056959727072854
field sum 0.44708652599759
field sqrsum 0.0066500989598745
attr source bitErrorRate(packetSentToUpper)
attr title "Bit error rate, histogram"
bin	-inf	0
bin	0	2443
bin	0.00095	0
bin	0.0019	111
bin	0.00285	0
bin	0.0038	0
bin	0.00475	0
bin	0.0057	0
bin	0.00665	0
bin	0.0076	0
bin	0.00855	0
bin	0.0095	0
bin	0.01045	0
bin	0.0114	0
bin	0.01235	0
bin	0.0133	0
bin	0.01425	0
bin	0.0152	0
bin	0.01615	0
bin	0.0171	0
bin	0.01805	0
bin	0.019	0
bin	0.01995	0
bin	0.0209	0
bin	0.02185	0
bin	0.0228	0
bin	0.02375	0
bin	0.0247	0
bin	0.02565	0
bin	0.0266	0
bin	0.02755	0
bin	0.0285	0
bin	0.02945	0
bin	0.0304	0
bin	0.03135	0
bin	0.0323	0
bin	0.03325	0
bin	0.0342	0
bin	0.03515	2
bin	0.0361	0
bin	0.03705	0
bin	0.038	0
bin	0.03895	0
bin	0.0399	0
bin	0.04085	0
bin	0.0418	0
bin	0.04275	0
bin	0.0437	0
bin	0.04465	0
bin	0.0456	0
bin	0.04655	0
bin	0.0475	0
bin	0.04845	0
bin	0.0494	0
bin	0.05035	0
bin	0.0513	0
bin	0.05225	0
bin	0.0532	0
bin	0.05415	0
bin	0.0551	0
bin	0.05605	1
bin	0.057	0
statistic Multihop.hostD.wlan[0].radio symbolErrorRate:histogram
field count 2557
field mean 0.00034709540595827
field stddev 0.0031400198471077
field min 0
field max 0.11067504363749
field sum 0.8875229530353
field sqrsum 0.02550951132011
attr source symbolErrorRate(packetSentToUpper)
attr title "Symbol error rate, histogram"
bin	-inf	0
bin	0	2443
bin	0.0019	0
bin	0.0038	111
bin	0.0057	0
bin	0.0076	0
bin	0.0095	0
bin	0.0114	0
bin	0.0133	0
bin	0.0152	0
bin	0.0171	0
bin	0.019	0
bin	0.0209	0
bin	0.0228	0
bin	0.0247	0
bin	0.0266	0
bin	0.0285	0
bin	0.0304	0
bin	0.0323	0
bin	0.0342	0
bin	0.0361	0
bin	0.038	0
bin	0.0399	0
bin	0.0418	0
bin	0.0437	0
bin	0.0456	0
bin	0.0475	0
bin	0.0494	0
bin	0.0513	0
bin	0.0532	0
bin	0.0551	0
bin	0.057	0
bin	0.0589	0
bin	0.0608	0
bin	0.0627	0
bin	0.0646	0
bin	0.0665	0
bin	0.0684	2
bin	0.0703	0
bin	0.0722	0
bin	0.0741	0
bin	0.076	0
bin	0.0779	0
bin	0.0798	0
bin	0.0817	0
bin	0.0836	0
bin	0.0855	0
bin	0.0874	0
bin	0.0893	0
bin	0.0912	0
bin	0.0931	0
bin	0.095	0
bin	0.0969	0
bin	0.0988	0
bin	0.1007	0
bin	0.1026	0
bin	0.1045	0
bin	0.1064	0
bin	0.1083	0
bin	0.1102	1
bin	0.1121	0
scalar Multihop.hostD.wlan[0].radio transmissionState:count 1984
attr interpolationmode sample-hold
attr source transmissionStateChanged
attr title "Radio transmission state, count"
scalar Multihop.hostD.wlan[0].radio receptionState:count 6176
attr interpolationmode sample-hold
attr source receptionStateChanged
attr title "Radio reception state, count"
scalar Multihop.hostD.wlan[0].radio radioMode:count 995
attr interpolationmode sample-hold
attr source radioModeChanged
attr title "Radio mode, count"
scalar Multihop.hostD.ipv4.ip packetDropAddressResolutionFailed:count 0
attr interpolationmode none
attr source packetDropReasonIsAddressResolutionFailed(packetDropped)
attr title "packet drop: address resolution failed, count"
scalar Multihop.hostD.ipv4.ip packetDropAddressResolutionFailed:sum(packetBytes) 0
attr interpolationmode none
attr source packetDropReasonIsAddressResolutionFailed(packetDropped)
attr title "packet drop: address resolution failed, sum(packetBytes)"
scalar Multihop.hostD.ipv4.ip packetDropHopLimitReached:count 0
attr interpolationmode none
attr source packetDropReasonIsHopLimitReached(packetDropped)
attr title "packet drop: hop limit reached, count"
scalar Multihop.hostD.ipv4.ip packetDropHopLimitReached:sum(packetBytes) 0
attr interpolationmode none
attr source packetDropReasonIsHopLimitReached(packetDropped)
attr title "packet drop: hop limit reached, sum(packetBytes)"
scalar Multihop.hostD.ipv4.ip packetDropForwardingDisabled:count 0
attr interpolationmode none
attr source packetDropReasonIsForwardingDisabled(packetDropped)
attr title "packet drop: forwarding disabled, count"
scalar Multihop.hostD.ipv4.ip packetDropForwardingDisabled:sum(packetBytes) 0
attr interpolationmode none
attr source packetDropReasonIsForwardingDisabled(packetDropped)
attr title "packet drop: forwarding disabled, sum(packetBytes)"
scalar Multihop.hostD.ipv4.ip packetDropNoInterfaceFound:count 0
attr interpolationmode none
attr source packetDropReasonIsNoInterfaceFound(packetDropped)
attr title "packet drop: no interface found, count"
scalar Multihop.hostD.ipv4.ip packetDropNoInterfaceFound:sum(packetBytes) 0
attr interpolationmode none
attr source packetDropReasonIsNoInterfaceFound(packetDropped)
attr title "packet drop: no interface found, sum(packetBytes)"
scalar Multihop.hostD.ipv4.ip packetDropNoRouteFound:count 0
attr interpolationmode none
attr source packetDropReasonIsNoRouteFound(packetDropped)
attr title "packet drop: no route found, count"
scalar Multihop.hostD.ipv4.ip packetDropNoRouteFound:sum(packetBytes) 0
attr interpolationmode none
attr source packetDropReasonIsNoRouteFound(packetDropped)
attr title "packet drop: no route found, sum(packetBytes)"
scalar Multihop.hostD.ipv4.ip packetDropUndefined:count 0
attr interpolationmode none
attr source packetDropReasonIsUndefined(packetDropped)
attr title "packet drop: undefined, count"
scalar Multihop.hostD.ipv4.ip packetDropUndefined:sum(packetBytes) 0
attr interpolationmode none
attr source packetDropReasonIsUndefined(packetDropped)
attr title "packet drop: undefined, sum(packetBytes)"
scalar Multihop.hostD.udp packetReceived:count 18
attr interpolationmode none
attr source packetReceived
attr title "packets received, count"
scalar Multihop.hostD.udp packetReceived:sum(packetBytes) 576
attr interpolationmode none
attr source packetReceived
attr title "packets received, sum(packetBytes)"
scalar Multihop.hostD.udp packetSent:count 7
attr interpolationmode none
attr source packetSent
attr title "packets sent, count"
scalar Multihop.hostD.udp packetSent:sum(packetBytes) 220
attr interpolationmode none
attr source packetSent
attr title "packets sent, sum(packetBytes)"
scalar Multihop.hostD.udp passedUpPk:count 18
attr interpolationmode none
attr source packetSentToUpper
attr title "packets passed up, count"
scalar Multihop.hostD.udp droppedPkWrongPort:count 0
attr interpolationmode none
attr source packetDropReasonIsNoPortFound(packetDropped)
attr title "packets dropped (wrong port), count"
scalar Multihop.hostD.udp droppedPkBadChecksum:count 0
attr interpolationmode none
attr source packetDropReasonIsIncorrectlyReceived(packetDropped)
attr title "packets dropped (checksum error), count"
scalar Multihop.hostE.lo[0].lo rcvdPkFromHl:count 0
attr interpolationmode none
attr source packetReceivedFromUpper
attr title "packets received from higher layer, count"
scalar Multihop.hostE.lo[0].lo rcvdPkFromHl:sum(packetBytes) 0
attr interpolationmode none
attr source packetReceivedFromUpper
attr title "packets received from higher layer, sum(packetBytes)"
scalar Multihop.hostE.lo[0].lo passedUpPk:count 0
attr interpolationmode none
attr source packetSentToUpper
attr title "packets passed to higher layer, count"
scalar Multihop.hostE.lo[0].lo passedUpPk:sum(packetBytes) 0
attr interpolationmode none
attr source packetSentToUpper
attr title "packets passed to higher layer, sum(packetBytes)"
scalar Multihop.hostE.wlan[0].mac.queue packetPopped:count 6
attr interpolationmode none
attr title "packet popped, count"
scalar Multihop.hostE.wlan[0].mac.queue packetPopped:sum(packetBytes) 438
attr interpolationmode none
attr title "packet popped, sum(packetBytes)"
statistic Multihop.hostE.wlan[0].mac.queue queueingTime:histogram
field count 6
field mean 0.00024737819983333
field stddev 0.00030375514932134
field min 0
field max 0.000626382276
field sum 0.001484269199
field sqrsum 8.2851179621283e-07
attr interpolationmode none
attr source queueingTime(packetPopped)
attr title "queueing times, histogram"
attr unit s
bin	-inf	0
bin	0	3
bin	1e-05	0
bin	2e-05	0
bin	3e-05	0
bin	4e-05	0
bin	5e-05	0
bin	6e-05	0
bin	7e-05	0
bin	8e-05	0
bin	9e-05	0
bin	0.0001	0
bin	0.00011	0
bin	0.00012	0
bin	0.00013	0
bin	0.00014	0
bin	0.00015	0
bin	0.00016	0
bin	0.00017	0
bin	0.00018	0
bin	0.00019	0
bin	0.0002	0
bin	0.00021	0
bin	0.00022	0
bin	0.00023	0
bin	0.00024	1
bin	0.00025	0
bin	0.00026	0
bin	0.00027	0
bin	0.00028	0
bin	0.00029	0
bin	0.0003	0
bin	0.00031	0
bin	0.00032	0
bin	0.00033	0
bin	0.00034	0
bin	0.00035	0
bin	0.00036	0
bin	0.00037	0
bin	0.00038	0
bin	0.00039	0
bin	0.0004	0
bin	0.00041	0
bin	0.00042	0
bin	0.00043	0
bin	0.00044	0
bin	0.00045	0
bin	0.00046	0
bin	0.00047	0
bin	0.00048	0
bin	0.00049	0
bin	0.0005	0
bin	0.00051	0
bin	0.00052	0
bin	0.00053	0
bin	0.00054	0
bin	0.00055	0
bin	0.00056	0
bin	0.00057	0
bin	0.00058	0
bin	0.00059	0
bin	0.0006	0
bin	0.00061	1
bin	0.00062	1
bin	0.00063	0
bin	0.00064	0
bin	0.00065	0
bin	0.00066	0
bin	0.00067	0
bin	0.00068	0
bin	0.00069	0
bin	0.0007	0
bin	0.00071	0
bin	0.00072	0
bin	0.00073	0
bin	0.00074	0
bin	0.00075	0
bin	0.00076	0
bin	0.00077	0
bin	0.00078	0
bin	0.00079	0
scalar Multihop.hostE.wlan[0].mac.queue queueLength:max 1
attr interpolationmode sample-hold
attr source "count(packetPushed) - count(packetPopped) - count(packetRemoved) - count(packetDropped)"
attr title "queue length, max"
scalar Multihop.hostE.wlan[0].mac.queue queueLength:timeavg 7.5499669963536e-05
attr interpolationmode sample-hold
attr source "count(packetPushed) - count(packetPopped) - count(packetRemoved) - count(packetDropped)"
attr title "queue length, timeavg"
scalar Multihop.hostE.wlan[0].mac.queue packetPushed:count 6
attr interpolationmode none
attr title "packet pushed, count"
scalar Multihop.hostE.wlan[0].mac.queue packetPushed:sum(packetBytes) 438
attr interpolationmode none
attr title "packet pushed, sum(packetBytes)"
scalar Multihop.hostE.wlan[0].mac.queue packetDropQueueOverflow:count 0
attr interpolationmode none
attr source packetDropReasonIsQueueOverflow(packetDropped)
attr title "packet drops: queue overflow, count"
scalar Multihop.hostE.wlan[0].mac.queue packetDropQueueOverflow:sum(packetBytes) 0
attr interpolationmode none
attr source packetDropReasonIsQueueOverflow(packetDropped)
attr title "packet drops: queue overflow, sum(packetBytes)"
scalar Multihop.hostE.wlan[0].mac.queue packetRemoved:count 0
attr interpolationmode none
attr title "packets removed, count"
scalar Multihop.hostE.wlan[0].mac.queue packetRemoved:sum(packetBytes) 0
attr interpolationmode none
attr title "packets removed, sum(packetBytes)"
scalar Multihop.hostE.wlan[0].mac numRetry 0
scalar Multihop.hostE.wlan[0].mac numSentWithoutRetry 0
scalar Multihop.hostE.wlan[0].mac numGivenUp 0
scalar Multihop.hostE.wlan[0].mac numCollision 181
scalar Multihop.hostE.wlan[0].mac numSent 0
scalar Multihop.hostE.wlan[0].mac numReceived 0
scalar Multihop.hostE.wlan[0].mac numSentBroadcast 6
scalar Multihop.hostE.wlan[0].mac numReceivedBroadcast 14
scalar Multihop.hostE.wlan[0].mac packetDropIncorrectlyReceived:count 181
attr interpolationmode none
attr source packetDropReasonIsIncorrectlyReceived(packetDropped)
attr title "packet drop: incorrectly received, count"
scalar Multihop.hostE.wlan[0].mac packetDropIncorrectlyReceived:sum(packetBytes) 189869
attr interpolationmode none
attr source packetDropReasonIsIncorrectlyReceived(packetDropped)
attr title "packet drop: incorrectly received, sum(packetBytes)"
scalar Multihop.hostE.wlan[0].mac packetDropNotAddressedToUs:count 915
attr interpolationmode none
attr source packetDropReasonIsNotAddressedToUs(packetDropped)
attr title "packet drop: not addressed to us, count"
scalar Multihop.hostE.wlan[0].mac packetDropNotAddressedToUs:sum(packetBytes) 947095
attr interpolationmode none
attr source packetDropReasonIsNotAddressedToUs(packetDropped)
attr title "packet drop: not addressed to us, sum(packetBytes)"
scalar Multihop.hostE.wlan[0].mac packetDropQueueOverflow:count 0
attr interpolationmode none
attr source packetDropReasonIsQueueOverflow(packetDropped)
attr title "packet drop: queue overflow, count"
scalar Multihop.hostE.wlan[0].mac packetDropQueueOverflow:sum(packetBytes) 0
attr interpolationmode none
attr source packetDropReasonIsQueueOverflow(packetDropped)
attr title "packet drop: queue overflow, sum(packetBytes)"
scalar Multihop.hostE.wlan[0].mac packetDropRetryLimitReached:count 0
attr interpolationmode none
attr source packetDropReasonIsRetryLimitReached(packetDropped)
attr title "packet drop: retry limit reached, count"
scalar Multihop.hostE.wlan[0].mac packetDropRetryLimitReached:sum(packetBytes) 0
attr interpolationmode none
attr source packetDropReasonIsRetryLimitReached(packetDropped)
attr title "packet drop: retry limit reached, sum(packetBytes)"
scalar Multihop.hostE.wlan[0].mac linkBroken:count 0
attr interpolationmode none
attr source linkBroken
attr title "link break, count"
statistic Multihop.hostE.wlan[0].radio minSnir:histogram
field count 1937
field mean 2239.5058844022
field stddev 718.86524023128
field min 0.99959534489667
field max 2470.2403025796
field sum 4337922.8980872
field sqrsum 10715265220.624
attr source minimumSnir(packetSentToUpper)
attr title "Min SNIR, histogram"
bin	-inf	0
bin	0	181
bin	50	0
bin	100	0
bin	150	0
bin	200	0
bin	250	0
bin	300	0
bin	350	0
bin	400	0
bin	450	0
bin	500	0
bin	550	0
bin	600	0
bin	650	0
bin	700	0
bin	750	0
bin	800	0
bin	850	0
bin	900	0
bin	950	0
bin	1000	0
bin	1050	0
bin	1100	0
bin	1150	0
bin	1200	0
bin	1250	0
bin	1300	0
bin	1350	0
bin	1400	0
bin	1450	0
bin	1500	0
bin	1550	0
bin	1600	0
bin	1650	0
bin	1700	0
bin	1750	0
bin	1800	0
bin	1850	0
bin	1900	0
bin	1950	0
bin	2000	0
bin	2050	0
bin	2100	0
bin	2150	0
bin	2200	0
bin	2250	0
bin	2300	0
bin	2350	0
bin	2400	0
bin	2450	1756
bin	2500	0
bin	2550	0
bin	2600	0
bin	2650	0
bin	2700	0
bin	2750	0
bin	2800	0
bin	2850	0
bin	2900	0
bin	2950	0
bin	3000	0
bin	3050	0
bin	3100	0
statistic Multihop.hostE.wlan[0].radio packetErrorRate:histogram
field count 1937
field mean 0.093320807733263
field stddev 0.29074589478096
field min 0
field max 0.99868731811785
field sum 180.76240457933
field sqrsum 180.52512104586
attr source packetErrorRate(packetSentToUpper)
attr title "Packet error rate, histogram"
bin	-inf	0
bin	0	1756
bin	0.02	0
bin	0.04	0
bin	0.06	0
bin	0.08	0
bin	0.1	0
bin	0.12	0
bin	0.14	0
bin	0.16	0
bin	0.18	0
bin	0.2	0
bin	0.22	0
bin	0.24	0
bin	0.26	0
bin	0.28	0
bin	0.3	0
bin	0.32	0
bin	0.34	0
bin	0.36	0
bin	0.38	0
bin	0.4	0
bin	0.42	0
bin	0.44	0
bin	0.46	0
bin	0.48	0
bin	0.5	0
bin	0.52	0
bin	0.54	0
bin	0.56	0
bin	0.58	0
bin	0.6	0
bin	0.62	0
bin	0.64	0
bin	0.66	0
bin	0.68	0
bin	0.7	0
bin	0.72	0
bin	0.74	0
bin	0.76	0
bin	0.78	0
bin	0.8	0
bin	0.82	0
bin	0.84	0
bin	0.86	0
bin	0.88	0
bin	0.9	0
bin	0.92	0
bin	0.94	0
bin	0.96	0
bin	0.98	181
bin	1	0
bin	1.02	0
bin	1.04	0
bin	1.06	0
bin	1.08	0
bin	1.1	0
bin	1.12	0
bin	1.14	0
bin	1.16	0
bin	1.18	0
bin	1.2	0
bin	1.22	0
bin	1.24	0
bin	1.26	0
statistic Multihop.hostE.wlan[0].radio bitErrorRate:histogram
field count 1937
field mean 7.3299197409995e-05
field stddev 0.00022836751261958
field min 0
field max 0.00078442290266939
field sum 0.14198054538316
field sqrsum 0.00011137279153204
attr source bitErrorRate(packetSentToUpper)
attr title "Bit error rate, histogram"
bin	-inf	0
bin	0	1756
bin	2e-05	0
bin	4e-05	0
bin	6e-05	0
bin	8e-05	0
bin	0.0001	0
bin	0.00012	0
bin	0.00014	0
bin	0.00016	0
bin	0.00018	0
bin	0.0002	0
bin	0.00022	0
bin	0.00024	0
bin	0.00026	0
bin	0.00028	0
bin	0.0003	0
bin	0.00032	0
bin	0.00034	0
bin	0.00036	0
bin	0.00038	0
bin	0.0004	0
bin	0.00042	0
bin	0.00044	0
bin	0.00046	0
bin	0.00048	0
bin	0.0005	0
bin	0.00052	0
bin	0.00054	0
bin	0.00056	0
bin	0.00058	0
bin	0.0006	0
bin	0.00062	0
bin	0.00064	0
bin	0.00066	0
bin	0.00068	0
bin	0.0007	0
bin	0.00072	0
bin	0.00074	0
bin	0.00076	0
bin	0.00078	181
bin	0.0008	0
bin	0.00082	0
bin	0.00084	0
bin	0.00086	0
bin	0.00088	0
bin	0.0009	0
bin	0.00092	0
bin	0.00094	0
bin	0.00096	0
bin	0.00098	0
bin	0.001	0
statistic Multihop.hostE.wlan[0].radio symbolErrorRate:histogram
field count 1937
field mean 0.00014654089725079
field stddev 0.00045655588853201
field min 0
field max 0.0015682304860485
field sum 0.28384971797478
field sqrsum 0.00044514178118431
attr source symbolErrorRate(packetSentToUpper)
attr title "Symbol error rate, histogram"
bin	-inf	0
bin	0	1756
bin	2e-05	0
bin	4e-05	0
bin	6e-05	0
bin	8e-05	0
bin	0.0001	0
bin	0.00012	0
bin	0.00014	0
bin	0.00016	0
bin	0.00018	0
bin	0.0002	0
bin	0.00022	0
bin	0.00024	0
bin	0.00026	0
bin	0.00028	0
bin	0.0003	0
bin	0.00032	0
bin	0.00034	0
bin	0.00036	0
bin	0.00038	0
bin	0.0004	0
bin	0.00042	0
bin	0.00044	0
bin	0.00046	0
bin	0.00048	0
bin	0.0005	0
bin	0.00052	0
bin	0.00054	0
bin	0.00056	0
bin	0.00058	0
bin	0.0006	0
bin	0.00062	0
bin	0.00064	0
bin	0.00066	0
bin	0.00068	0
bin	0.0007	0
bin	0.00072	0
bin	0.00074	0
bin	0.00076	0
bin	0.00078	0
bin	0.0008	0
bin	0.00082	0
bin	0.00084	0
bin	0.00086	0
bin	0.00088	0
bin	0.0009	0
bin	0.00092	0
bin	0.00094	0
bin	0.00096	0
bin	0.00098	0
bin	0.001	0
bin	0.00102	0
bin	0.00104	0
bin	0.00106	0
bin	0.00108	0
bin	0.0011	0
bin	0.00112	0
bin	0.00114	0
bin	0.00116	0
bin	0.00118	0
bin	0.0012	0
bin	0.00122	0
bin	0.00124	0
bin	0.00126	0
bin	0.00128	0
bin	0.0013	0
bin	0.00132	0
bin	0.00134	0
bin	0.00136	0
bin	0.00138	0
bin	0.0014	0
bin	0.00142	0
bin	0.00144	0
bin	0.00146	0
bin	0.00148	0
bin	0.0015	0
bin	0.00152	0
bin	0.00154	0
bin	0.00156	181
bin	0.00158	0
bin	0.0016	0
bin	0.00162	0
bin	0.00164	0
bin	0.00166	0
bin	0.00168	0
bin	0.0017	0
bin	0.00172	0
bin	0.00174	0
bin	0.00176	0
bin	0.00178	0
bin	0.0018	0
bin	0.00182	0
bin	0.00184	0
bin	0.00186	0
bin	0.00188	0
bin	0.0019	0
bin	0.00192	0
bin	0.00194	0
bin	0.00196	0
bin	0.00198	0
scalar Multihop.hostE.wlan[0].radio transmissionState:count 24
attr interpolationmode sample-hold
attr source transmissionStateChanged
attr title "Radio transmission state, count"
scalar Multihop.hostE.wlan[0].radio receptionState:count 3945
attr interpolationmode sample-hold
attr source receptionStateChanged
attr title "Radio reception state, count"
scalar Multihop.hostE.wlan[0].radio radioMode:count 15
attr interpolationmode sample-hold
attr source radioModeChanged
attr title "Radio mode, count"
scalar Multihop.hostE.ipv4.ip packetDropAddressResolutionFailed:count 0
attr interpolationmode none
attr source packetDropReasonIsAddressResolutionFailed(packetDropped)
attr title "packet drop: address resolution failed, count"
scalar Multihop.hostE.ipv4.ip packetDropAddressResolutionFailed:sum(packetBytes) 0
attr interpolationmode none
attr source packetDropReasonIsAddressResolutionFailed(packetDropped)
attr title "packet drop: address resolution failed, sum(packetBytes)"
scalar Multihop.hostE.ipv4.ip packetDropHopLimitReached:count 0
attr interpolationmode none
attr source packetDropReasonIsHopLimitReached(packetDropped)
attr title "packet drop: hop limit reached, count"
scalar Multihop.hostE.ipv4.ip packetDropHopLimitReached:sum(packetBytes) 0
attr interpolationmode none
attr source packetDropReasonIsHopLimitReached(packetDropped)
attr title "packet drop: hop limit reached, sum(packetBytes)"
scalar Multihop.hostE.ipv4.ip packetDropForwardingDisabled:count 0
attr interpolationmode none
attr source packetDropReasonIsForwardingDisabled(packetDropped)
attr title "packet drop: forwarding disabled, count"
scalar Multihop.hostE.ipv4.ip packetDropForwardingDisabled:sum(packetBytes) 0
attr interpolationmode none
attr source packetDropReasonIsForwardingDisabled(packetDropped)
attr title "packet drop: forwarding disabled, sum(packetBytes)"
scalar Multihop.hostE.ipv4.ip packetDropNoInterfaceFound:count 0
attr interpolationmode none
attr source packetDropReasonIsNoInterfaceFound(packetDropped)
attr title "packet drop: no interface found, count"
scalar Multihop.hostE.ipv4.ip packetDropNoInterfaceFound:sum(packetBytes) 0
attr interpolationmode none
attr source packetDropReasonIsNoInterfaceFound(packetDropped)
attr title "packet drop: no interface found, sum(packetBytes)"
scalar Multihop.hostE.ipv4.ip packetDropNoRouteFound:count 0
attr interpolationmode none
attr source packetDropReasonIsNoRouteFound(packetDropped)
attr title "packet drop: no route found, count"
scalar Multihop.hostE.ipv4.ip packetDropNoRouteFound:sum(packetBytes) 0
attr interpolationmode none
attr source packetDropReasonIsNoRouteFound(packetDropped)
attr title "packet drop: no route found, sum(packetBytes)"
scalar Multihop.hostE.ipv4.ip packetDropUndefined:count 0
attr interpolationmode none
attr source packetDropReasonIsUndefined(packetDropped)
attr title "packet drop: undefined, count"
scalar Multihop.hostE.ipv4.ip packetDropUndefined:sum(packetBytes) 0
attr interpolationmode none
attr source packetDropReasonIsUndefined(packetDropped)
attr title "packet drop: undefined, sum(packetBytes)"
scalar Multihop.hostE.udp packetReceived:count 14
attr interpolationmode none
attr source packetReceived
attr title "packets received, count"
scalar Multihop.hostE.udp packetReceived:sum(packetBytes) 452
attr interpolationmode none
attr source packetReceived
attr title "packets received, sum(packetBytes)"
scalar Multihop.hostE.udp packetSent:count 6
attr interpolationmode none
attr source packetSent
attr title "packets sent, count"
scalar Multihop.hostE.udp packetSent:sum(packetBytes) 192
attr interpolationmode none
attr source packetSent
attr title "packets sent, sum(packetBytes)"
scalar Multihop.hostE.udp passedUpPk:count 14
attr interpolationmode none
attr source packetSentToUpper
attr title "packets passed up, count"
scalar Multihop.hostE.udp droppedPkWrongPort:count 0
attr interpolationmode none
attr source packetDropReasonIsNoPortFound(packetDropped)
attr title "packets dropped (wrong port), count"
scalar Multihop.hostE.udp droppedPkBadChecksum:count 0
attr interpolationmode none
attr source packetDropReasonIsIncorrectlyReceived(packetDropped)
attr title "packets dropped (checksum error), count"
scalar Multihop.hostF.lo[0].lo rcvdPkFromHl:count 0
attr interpolationmode none
attr source packetReceivedFromUpper
attr title "packets received from higher layer, count"
scalar Multihop.hostF.lo[0].lo rcvdPkFromHl:sum(packetBytes) 0
attr interpolationmode none
attr source packetReceivedFromUpper
attr title "packets received from higher layer, sum(packetBytes)"
scalar Multihop.hostF.lo[0].lo passedUpPk:count 0
attr interpolationmode none
attr source packetSentToUpper
attr title "packets passed to higher layer, count"
scalar Multihop.hostF.lo[0].lo passedUpPk:sum(packetBytes) 0
attr interpolationmode none
attr source packetSentToUpper
attr title "packets passed to higher layer, sum(packetBytes)"
scalar Multihop.hostF.wlan[0].mac.queue packetPopped:count 4
attr interpolationmode none
attr title "packet popped, count"
scalar Multihop.hostF.wlan[0].mac.queue packetPopped:sum(packetBytes) 292
attr interpolationmode none
attr title "packet popped, sum(packetBytes)"
statistic Multihop.hostF.wlan[0].mac.queue queueingTime:histogram
field count 4
field mean 0.0058636285305
field stddev 0.0039971866291952
field min 0
field max 0.008861726777
field sum 0.023454514122
field sqrsum 0.00018546106102063
attr interpolationmode none
attr source queueingTime(packetPopped)
attr title "queueing times, histogram"
attr unit s
bin	-inf	0
bin	0	1
bin	0.0002	0
bin	0.0004	0
bin	0.0006	0
bin	0.0008	0
bin	0.001	0
bin	0.0012	0
bin	0.0014	0
bin	0.0016	0
bin	0.0018	0
bin	0.002	0
bin	0.0022	0
bin	0.0024	0
bin	0.0026	0
bin	0.0028	0
bin	0.003	0
bin	0.0032	0
bin	0.0034	0
bin	0.0036	0
bin	0.0038	0
bin	0.004	0
bin	0.0042	0
bin	0.0044	0
bin	0.0046	0
bin	0.0048	0
bin	0.005	0
bin	0.0052	0
bin	0.0054	0
bin	0.0056	0
bin	0.0058	0
bin	0.006	0
bin	0.0062	0
bin	0.0064	0
bin	0.0066	0
bin	0.0068	1
[...]
bin	0.0114	0
bin	0.01235	0
bin	0.0133	0
bin	0.01425	0
bin	0.0152	0
bin	0.01615	0
bin	0.0171	0
bin	0.01805	0
bin	0.019	0
bin	0.01995	0
bin	0.0209	0
bin	0.02185	0
bin	0.0228	0
bin	0.02375	0
bin	0.0247	0
bin	0.02565	0
bin	0.0266	0
bin	0.02755	0
bin	0.0285	0
bin	0.02945	0
bin	0.0304	0
bin	0.03135	0
bin	0.0323	0
bin	0.03325	0
bin	0.0342	0
bin	0.03515	0
bin	0.0361	0
bin	0.03705	0
bin	0.038	0
bin	0.03895	0
bin	0.0399	0
bin	0.04085	0
bin	0.0418	0
bin	0.04275	0
bin	0.0437	0
bin	0.04465	0
bin	0.0456	0
bin	0.04655	0
bin	0.0475	0
bin	0.04845	0
bin	0.0494	0
bin	0.05035	0
bin	0.0513	0
bin	0.05225	0
bin	0.0532	0
bin	0.05415	0
bin	0.0551	0
bin	0.05605	3
bin	0.057	0
statistic Multihop.hostG.wlan[0].radio symbolErrorRate:histogram
field count 2069
field mean 0.00019213637483225
field stddev 0.0042214456964242
field min 0
field max 0.11067504363749
field sum 0.39753015952793
field sqrsum 0.036929388595669
attr source symbolErrorRate(packetSentToUpper)
attr title "Symbol error rate, histogram"
bin	-inf	0
bin	0	2061
bin	0.0019	0
bin	0.0038	5
bin	0.0057	0
bin	0.0076	0
bin	0.0095	0
bin	0.0114	0
bin	0.0133	0
bin	0.0152	0
bin	0.0171	0
bin	0.019	0
bin	0.0209	0
bin	0.0228	0
bin	0.0247	0
bin	0.0266	0
bin	0.0285	0
bin	0.0304	0
bin	0.0323	0
bin	0.0342	0
bin	0.0361	0
bin	0.038	0
bin	0.0399	0
bin	0.0418	0
bin	0.0437	0
bin	0.0456	0
bin	0.0475	0
bin	0.0494	0
bin	0.0513	0
bin	0.0532	0
bin	0.0551	0
bin	0.057	0
bin	0.0589	0
bin	0.0608	0
bin	0.0627	0
bin	0.0646	0
bin	0.0665	0
bin	0.0684	0
bin	0.0703	0
bin	0.0722	0
bin	0.0741	0
bin	0.076	0
bin	0.0779	0
bin	0.0798	0
bin	0.0817	0
bin	0.0836	0
bin	0.0855	0
bin	0.0874	0
bin	0.0893	0
bin	0.0912	0
bin	0.0931	0
bin	0.095	0
bin	0.0969	0
bin	0.0988	0
bin	0.1007	0
bin	0.1026	0
bin	0.1045	0
bin	0.1064	0
bin	0.1083	0
bin	0.1102	3
bin	0.1121	0
scalar Multihop.hostG.wlan[0].radio transmissionState:count 4180
attr interpolationmode sample-hold
attr source transmissionStateChanged
attr title "Radio transmission state, count"
scalar Multihop.hostG.wlan[0].radio receptionState:count 6306
attr interpolationmode sample-hold
attr source receptionStateChanged
attr title "Radio reception state, count"
scalar Multihop.hostG.wlan[0].radio radioMode:count 2093
attr interpolationmode sample-hold
attr source radioModeChanged
attr title "Radio mode, count"
scalar Multihop.hostG.ipv4.ip packetDropAddressResolutionFailed:count 0
attr interpolationmode none
attr source packetDropReasonIsAddressResolutionFailed(packetDropped)
attr title "packet drop: address resolution failed, count"
scalar Multihop.hostG.ipv4.ip packetDropAddressResolutionFailed:sum(packetBytes) 0
attr interpolationmode none
attr source packetDropReasonIsAddressResolutionFailed(packetDropped)
attr title "packet drop: address resolution failed, sum(packetBytes)"
scalar Multihop.hostG.ipv4.ip packetDropHopLimitReached:count 0
attr interpolationmode none
attr source packetDropReasonIsHopLimitReached(packetDropped)
attr title "packet drop: hop limit reached, count"
scalar Multihop.hostG.ipv4.ip packetDropHopLimitReached:sum(packetBytes) 0
attr interpolationmode none
attr source packetDropReasonIsHopLimitReached(packetDropped)
attr title "packet drop: hop limit reached, sum(packetBytes)"
scalar Multihop.hostG.ipv4.ip packetDropForwardingDisabled:count 0
attr interpolationmode none
attr source packetDropReasonIsForwardingDisabled(packetDropped)
attr title "packet drop: forwarding disabled, count"
scalar Multihop.hostG.ipv4.ip packetDropForwardingDisabled:sum(packetBytes) 0
attr interpolationmode none
attr source packetDropReasonIsForwardingDisabled(packetDropped)
attr title "packet drop: forwarding disabled, sum(packetBytes)"
scalar Multihop.hostG.ipv4.ip packetDropNoInterfaceFound:count 0
attr interpolationmode none
attr source packetDropReasonIsNoInterfaceFound(packetDropped)
attr title "packet drop: no interface found, count"
scalar Multihop.hostG.ipv4.ip packetDropNoInterfaceFound:sum(packetBytes) 0
attr interpolationmode none
attr source packetDropReasonIsNoInterfaceFound(packetDropped)
attr title "packet drop: no interface found, sum(packetBytes)"
scalar Multihop.hostG.ipv4.ip packetDropNoRouteFound:count 0
attr interpolationmode none
attr source packetDropReasonIsNoRouteFound(packetDropped)
attr title "packet drop: no route found, count"
scalar Multihop.hostG.ipv4.ip packetDropNoRouteFound:sum(packetBytes) 0
attr interpolationmode none
attr source packetDropReasonIsNoRouteFound(packetDropped)
attr title "packet drop: no route found, sum(packetBytes)"
scalar Multihop.hostG.ipv4.ip packetDropUndefined:count 0
attr interpolationmode none
attr source packetDropReasonIsUndefined(packetDropped)
attr title "packet drop: undefined, count"
scalar Multihop.hostG.ipv4.ip packetDropUndefined:sum(packetBytes) 0
attr interpolationmode none
attr source packetDropReasonIsUndefined(packetDropped)
attr title "packet drop: undefined, sum(packetBytes)"
scalar Multihop.hostG.udp packetReceived:count 9
attr interpolationmode none
attr source packetReceived
attr title "packets received, count"
scalar Multihop.hostG.udp packetReceived:sum(packetBytes) 264
attr interpolationmode none
attr source packetReceived
attr title "packets received, sum(packetBytes)"
scalar Multihop.hostG.udp packetSent:count 6
attr interpolationmode none
attr source packetSent
attr title "packets sent, count"
scalar Multihop.hostG.udp packetSent:sum(packetBytes) 184
attr interpolationmode none
attr source packetSent
attr title "packets sent, sum(packetBytes)"
scalar Multihop.hostG.udp passedUpPk:count 9
attr interpolationmode none
attr source packetSentToUpper
attr title "packets passed up, count"
scalar Multihop.hostG.udp droppedPkWrongPort:count 0
attr interpolationmode none
attr source packetDropReasonIsNoPortFound(packetDropped)
attr title "packets dropped (wrong port), count"
scalar Multihop.hostG.udp droppedPkBadChecksum:count 0
attr interpolationmode none
attr source packetDropReasonIsIncorrectlyReceived(packetDropped)
attr title "packets dropped (checksum error), count"
scalar Multihop.hostH.lo[0].lo rcvdPkFromHl:count 0
attr interpolationmode none
attr source packetReceivedFromUpper
attr title "packets received from higher layer, count"
scalar Multihop.hostH.lo[0].lo rcvdPkFromHl:sum(packetBytes) 0
attr interpolationmode none
attr source packetReceivedFromUpper
attr title "packets received from higher layer, sum(packetBytes)"
scalar Multihop.hostH.lo[0].lo passedUpPk:count 0
attr interpolationmode none
attr source packetSentToUpper
attr title "packets passed to higher layer, count"
scalar Multihop.hostH.lo[0].lo passedUpPk:sum(packetBytes) 0
attr interpolationmode none
attr source packetSentToUpper
attr title "packets passed to higher layer, sum(packetBytes)"
scalar Multihop.hostH.wlan[0].mac.queue packetPopped:count 227
attr interpolationmode none
attr title "packet popped, count"
scalar Multihop.hostH.wlan[0].mac.queue packetPopped:sum(packetBytes) 233239
attr interpolationmode none
attr title "packet popped, sum(packetBytes)"
statistic Multihop.hostH.wlan[0].mac.queue queueingTime:histogram
field count 227
field mean 0.016101295039546
field stddev 0.022722706411924
field min 0
field max 0.097641011764
field sum 3.654993973977
field sqrsum 0.17553876973301
attr interpolationmode none
attr source queueingTime(packetPopped)
attr title "queueing times, histogram"
attr unit s
bin	-inf	0
bin	0	111
bin	0.002	0
bin	0.004	0
bin	0.006	0
bin	0.008	33
bin	0.01	0
bin	0.012	0
bin	0.014	0
bin	0.016	11
bin	0.018	11
bin	0.02	0
bin	0.022	0
bin	0.024	0
bin	0.026	11
bin	0.028	1
bin	0.03	0
bin	0.032	0
bin	0.034	12
bin	0.036	2
bin	0.038	1
bin	0.04	0
bin	0.042	0
bin	0.044	7
bin	0.046	1
bin	0.048	2
bin	0.05	0
bin	0.052	8
bin	0.054	0
bin	0.056	0
bin	0.058	0
bin	0.06	2
bin	0.062	4
bin	0.064	0
bin	0.066	0
bin	0.068	0
bin	0.07	3
bin	0.072	0
bin	0.074	0
bin	0.076	0
bin	0.078	2
bin	0.08	0
bin	0.082	0
bin	0.084	0
bin	0.086	0
bin	0.088	3
bin	0.09	0
bin	0.092	0
bin	0.094	0
bin	0.096	2
bin	0.098	0
scalar Multihop.hostH.wlan[0].mac.queue queueLength:max 6
attr interpolationmode sample-hold
attr source "count(packetPushed) - count(packetPopped) - count(packetRemoved) - count(packetDropped)"
attr title "queue length, max"
scalar Multihop.hostH.wlan[0].mac.queue queueLength:timeavg 0.18591618558576
attr interpolationmode sample-hold
attr source "count(packetPushed) - count(packetPopped) - count(packetRemoved) - count(packetDropped)"
attr title "queue length, timeavg"
scalar Multihop.hostH.wlan[0].mac.queue packetPushed:count 227
attr interpolationmode none
attr title "packet pushed, count"
scalar Multihop.hostH.wlan[0].mac.queue packetPushed:sum(packetBytes) 233239
attr interpolationmode none
attr title "packet pushed, sum(packetBytes)"
scalar Multihop.hostH.wlan[0].mac.queue packetDropQueueOverflow:count 0
attr interpolationmode none
attr source packetDropReasonIsQueueOverflow(packetDropped)
attr title "packet drops: queue overflow, count"
scalar Multihop.hostH.wlan[0].mac.queue packetDropQueueOverflow:sum(packetBytes) 0
attr interpolationmode none
attr source packetDropReasonIsQueueOverflow(packetDropped)
attr title "packet drops: queue overflow, sum(packetBytes)"
scalar Multihop.hostH.wlan[0].mac.queue packetRemoved:count 0
attr interpolationmode none
attr title "packets removed, count"
scalar Multihop.hostH.wlan[0].mac.queue packetRemoved:sum(packetBytes) 0
attr interpolationmode none
attr title "packets removed, sum(packetBytes)"
scalar Multihop.hostH.wlan[0].mac numRetry 0
scalar Multihop.hostH.wlan[0].mac numSentWithoutRetry 223
scalar Multihop.hostH.wlan[0].mac numGivenUp 0
scalar Multihop.hostH.wlan[0].mac numCollision 4
scalar Multihop.hostH.wlan[0].mac numSent 223
scalar Multihop.hostH.wlan[0].mac numReceived 223
scalar Multihop.hostH.wlan[0].mac numSentBroadcast 4
scalar Multihop.hostH.wlan[0].mac numReceivedBroadcast 13
scalar Multihop.hostH.wlan[0].mac packetDropIncorrectlyReceived:count 4
attr interpolationmode none
attr source packetDropReasonIsIncorrectlyReceived(packetDropped)
attr title "packet drop: incorrectly received, count"
scalar Multihop.hostH.wlan[0].mac packetDropIncorrectlyReceived:sum(packetBytes) 4196
attr interpolationmode none
attr source packetDropReasonIsIncorrectlyReceived(packetDropped)
attr title "packet drop: incorrectly received, sum(packetBytes)"
scalar Multihop.hostH.wlan[0].mac packetDropNotAddressedToUs:count 569
attr interpolationmode none
attr source packetDropReasonIsNotAddressedToUs(packetDropped)
attr title "packet drop: not addressed to us, count"
scalar Multihop.hostH.wlan[0].mac packetDropNotAddressedToUs:sum(packetBytes) 591981
attr interpolationmode none
attr source packetDropReasonIsNotAddressedToUs(packetDropped)
attr title "packet drop: not addressed to us, sum(packetBytes)"
scalar Multihop.hostH.wlan[0].mac packetDropQueueOverflow:count 0
attr interpolationmode none
attr source packetDropReasonIsQueueOverflow(packetDropped)
attr title "packet drop: queue overflow, count"
scalar Multihop.hostH.wlan[0].mac packetDropQueueOverflow:sum(packetBytes) 0
attr interpolationmode none
attr source packetDropReasonIsQueueOverflow(packetDropped)
attr title "packet drop: queue overflow, sum(packetBytes)"
scalar Multihop.hostH.wlan[0].mac packetDropRetryLimitReached:count 0
attr interpolationmode none
attr source packetDropReasonIsRetryLimitReached(packetDropped)
attr title "packet drop: retry limit reached, count"
scalar Multihop.hostH.wlan[0].mac packetDropRetryLimitReached:sum(packetBytes) 0
attr interpolationmode none
attr source packetDropReasonIsRetryLimitReached(packetDropped)
attr title "packet drop: retry limit reached, sum(packetBytes)"
scalar Multihop.hostH.wlan[0].mac linkBroken:count 0
attr interpolationmode none
attr source linkBroken
attr title "link break, count"
statistic Multihop.hostH.wlan[0].radio minSnir:histogram
field count 2264
field mean 2669.9147388313
field stddev 1406.4163628074
field min 0.14059298548131
field max 4391.5383156971
field sum 6044686.9687142
field sqrsum 20615028637.742
attr source minimumSnir(packetSentToUpper)
attr title "Min SNIR, histogram"
bin	-inf	0
bin	0	64
bin	100	0
bin	200	0
bin	300	0
bin	400	0
bin	500	0
bin	600	430
bin	700	0
bin	800	0
bin	900	0
bin	1000	0
bin	1100	0
bin	1200	0
bin	1300	0
bin	1400	0
bin	1500	0
bin	1600	0
bin	1700	0
bin	1800	0
bin	1900	0
bin	2000	0
bin	2100	0
bin	2200	0
bin	2300	0
bin	2400	1038
bin	2500	0
bin	2600	0
bin	2700	0
bin	2800	0
bin	2900	0
bin	3000	0
bin	3100	0
bin	3200	0
bin	3300	0
bin	3400	0
bin	3500	0
bin	3600	0
bin	3700	0
bin	3800	0
bin	3900	0
bin	4000	0
bin	4100	0
bin	4200	0
bin	4300	732
bin	4400	0
bin	4500	0
bin	4600	0
bin	4700	0
bin	4800	0
bin	4900	0
bin	5000	0
bin	5100	0
bin	5200	0
bin	5300	0
bin	5400	0
bin	5500	0
statistic Multihop.hostH.wlan[0].radio packetErrorRate:histogram
field count 2264
field mean 0.0017667845274326
field stddev 0.042005264813161
field min 0
field max 1
field sum 4.0000001701073
field sqrsum 4
attr source packetErrorRate(packetSentToUpper)
attr title "Packet error rate, histogram"
bin	-inf	0
bin	-0.5	0
bin	-0.48	0
bin	-0.46	0
bin	-0.44	0
bin	-0.42	0
bin	-0.4	0
bin	-0.38	0
bin	-0.36	0
bin	-0.34	0
bin	-0.32	0
bin	-0.3	0
bin	-0.28	0
bin	-0.26	0
bin	-0.24	0
bin	-0.22	0
bin	-0.2	0
bin	-0.18	0
bin	-0.16	0
bin	-0.14	0
bin	-0.12	0
bin	-0.1	0
bin	-0.08	0
bin	-0.06	0
bin	-0.04	0
bin	-0.02	0
bin	0	2260
bin	0.02	0
bin	0.04	0
bin	0.06	0
bin	0.08	0
bin	0.1	0
bin	0.12	0
bin	0.14	0
bin	0.16	0
bin	0.18	0
bin	0.2	0
bin	0.22	0
bin	0.24	0
bin	0.26	0
bin	0.28	0
bin	0.3	0
bin	0.32	0
bin	0.34	0
bin	0.36	0
bin	0.38	0
bin	0.4	0
bin	0.42	0
bin	0.44	0
bin	0.46	0
bin	0.48	0
bin	0.5	0
bin	0.52	0
bin	0.54	0
bin	0.56	0
bin	0.58	0
bin	0.6	0
bin	0.62	0
bin	0.64	0
bin	0.66	0
bin	0.68	0
bin	0.7	0
bin	0.72	0
bin	0.74	0
bin	0.76	0
bin	0.78	0
bin	0.8	0
bin	0.82	0
bin	0.84	0
bin	0.86	0
bin	0.88	0
bin	0.9	0
bin	0.92	0
bin	0.94	0
bin	0.96	0
bin	0.98	0
bin	1	4
bin	1.02	0
statistic Multihop.hostH.wlan[0].radio bitErrorRate:histogram
field count 2264
field mean 0.00012753789759196
field stddev 0.0032285832148275
field min 0
field max 0.11786661866713
field sum 0.2887458001482
field sqrsum 0.023625771320664
attr source bitErrorRate(packetSentToUpper)
attr title "Bit error rate, histogram"
bin	-inf	0
bin	0	2260
bin	0.002	0
bin	0.004	0
bin	0.006	0
bin	0.008	0
bin	0.01	0
bin	0.012	0
bin	0.014	0
bin	0.016	0
bin	0.018	0
bin	0.02	0
bin	0.022	0
bin	0.024	0
bin	0.026	0
bin	0.028	0
bin	0.03	0
bin	0.032	0
bin	0.034	0
bin	0.036	0
bin	0.038	0
bin	0.04	0
bin	0.042	0
bin	0.044	0
bin	0.046	0
bin	0.048	0
bin	0.05	0
bin	0.052	0
bin	0.054	0
bin	0.056	3
bin	0.058	0
bin	0.06	0
bin	0.062	0
bin	0.064	0
bin	0.066	0
bin	0.068	0
bin	0.07	0
bin	0.072	0
bin	0.074	0
bin	0.076	0
bin	0.078	0
bin	0.08	0
bin	0.082	0
bin	0.084	0
bin	0.086	0
bin	0.088	0
bin	0.09	0
bin	0.092	0
bin	0.094	0
bin	0.096	0
bin	0.098	0
bin	0.1	0
bin	0.102	0
bin	0.104	0
bin	0.106	0
bin	0.108	0
bin	0.11	0
bin	0.112	0
bin	0.114	0
bin	0.116	1
bin	0.118	0
statistic Multihop.hostH.wlan[0].radio symbolErrorRate:histogram
field count 2264
field mean 0.0002446403838232
field stddev 0.0061583426914346
field min 0
field max 0.22184069753823
field sum 0.55386582897573
field sqrsum 0.085960190936732
attr source symbolErrorRate(packetSentToUpper)
attr title "Symbol error rate, histogram"
bin	-inf	0
bin	-0.5	0
bin	-0.48	0
bin	-0.46	0
bin	-0.44	0
bin	-0.42	0
bin	-0.4	0
bin	-0.38	0
bin	-0.36	0
bin	-0.34	0
bin	-0.32	0
bin	-0.3	0
bin	-0.28	0
bin	-0.26	0
bin	-0.24	0
bin	-0.22	0
bin	-0.2	0
bin	-0.18	0
bin	-0.16	0
bin	-0.14	0
bin	-0.12	0
bin	-0.1	0
bin	-0.08	0
bin	-0.06	0
bin	-0.04	0
bin	-0.02	0
bin	0	2260
bin	0.02	0
bin	0.04	0
bin	0.06	0
bin	0.08	0
bin	0.1	3
bin	0.12	0
bin	0.14	0
bin	0.16	0
bin	0.18	0
bin	0.2	0
bin	0.22	1
bin	0.24	0
bin	0.26	0
bin	0.28	0
bin	0.3	0
bin	0.32	0
bin	0.34	0
bin	0.36	0
bin	0.38	0
bin	0.4	0
bin	0.42	0
bin	0.44	0
bin	0.46	0
bin	0.48	0
bin	0.5	0
scalar Multihop.hostH.wlan[0].radio transmissionState:count 1800
attr interpolationmode sample-hold
attr source transmissionStateChanged
attr title "Radio transmission state, count"
scalar Multihop.hostH.wlan[0].radio receptionState:count 5491
attr interpolationmode sample-hold
attr source receptionStateChanged
attr title "Radio reception state, count"
scalar Multihop.hostH.wlan[0].radio radioMode:count 903
attr interpolationmode sample-hold
attr source radioModeChanged
attr title "Radio mode, count"
scalar Multihop.hostH.ipv4.ip packetDropAddressResolutionFailed:count 0
attr interpolationmode none
attr source packetDropReasonIsAddressResolutionFailed(packetDropped)
attr title "packet drop: address resolution failed, count"
scalar Multihop.hostH.ipv4.ip packetDropAddressResolutionFailed:sum(packetBytes) 0
attr interpolationmode none
attr source packetDropReasonIsAddressResolutionFailed(packetDropped)
attr title "packet drop: address resolution failed, sum(packetBytes)"
scalar Multihop.hostH.ipv4.ip packetDropHopLimitReached:count 0
attr interpolationmode none
attr source packetDropReasonIsHopLimitReached(packetDropped)
attr title "packet drop: hop limit reached, count"
scalar Multihop.hostH.ipv4.ip packetDropHopLimitReached:sum(packetBytes) 0
attr interpolationmode none
attr source packetDropReasonIsHopLimitReached(packetDropped)
attr title "packet drop: hop limit reached, sum(packetBytes)"
scalar Multihop.hostH.ipv4.ip packetDropForwardingDisabled:count 0
attr interpolationmode none
attr source packetDropReasonIsForwardingDisabled(packetDropped)
attr title "packet drop: forwarding disabled, count"
scalar Multihop.hostH.ipv4.ip packetDropForwardingDisabled:sum(packetBytes) 0
attr interpolationmode none
attr source packetDropReasonIsForwardingDisabled(packetDropped)
attr title "packet drop: forwarding disabled, sum(packetBytes)"
scalar Multihop.hostH.ipv4.ip packetDropNoInterfaceFound:count 0
attr interpolationmode none
attr source packetDropReasonIsNoInterfaceFound(packetDropped)
attr title "packet drop: no interface found, count"
scalar Multihop.hostH.ipv4.ip packetDropNoInterfaceFound:sum(packetBytes) 0
attr interpolationmode none
attr source packetDropReasonIsNoInterfaceFound(packetDropped)
attr title "packet drop: no interface found, sum(packetBytes)"
scalar Multihop.hostH.ipv4.ip packetDropNoRouteFound:count 0
attr interpolationmode none
attr source packetDropReasonIsNoRouteFound(packetDropped)
attr title "packet drop: no route found, count"
scalar Multihop.hostH.ipv4.ip packetDropNoRouteFound:sum(packetBytes) 0
attr interpolationmode none
attr source packetDropReasonIsNoRouteFound(packetDropped)
attr title "packet drop: no route found, sum(packetBytes)"
scalar Multihop.hostH.ipv4.ip packetDropUndefined:count 0
attr interpolationmode none
attr source packetDropReasonIsUndefined(packetDropped)
attr title "packet drop: undefined, count"
scalar Multihop.hostH.ipv4.ip packetDropUndefined:sum(packetBytes) 0
attr interpolationmode none
attr source packetDropReasonIsUndefined(packetDropped)
attr title "packet drop: undefined, sum(packetBytes)"
scalar Multihop.hostH.udp packetReceived:count 14
attr interpolationmode none
attr source packetReceived
attr title "packets received, count"
scalar Multihop.hostH.udp packetReceived:sum(packetBytes) 436
attr interpolationmode none
attr source packetReceived
attr title "packets received, sum(packetBytes)"
scalar Multihop.hostH.udp packetSent:count 5
attr interpolationmode none
attr source packetSent
attr title "packets sent, count"
scalar Multihop.hostH.udp packetSent:sum(packetBytes) 156
attr interpolationmode none
attr source packetSent
attr title "packets sent, sum(packetBytes)"
scalar Multihop.hostH.udp passedUpPk:count 14
attr interpolationmode none
attr source packetSentToUpper
attr title "packets passed up, count"
scalar Multihop.hostH.udp droppedPkWrongPort:count 0
attr interpolationmode none
attr source packetDropReasonIsNoPortFound(packetDropped)
attr title "packets dropped (wrong port), count"
scalar Multihop.hostH.udp droppedPkBadChecksum:count 0
attr interpolationmode none
attr source packetDropReasonIsIncorrectlyReceived(packetDropped)
attr title "packets dropped (checksum error), count"

