version 2
run DSCP-0-20220817-23:05:44-70404
attr configname DSCP
attr datetime 20220817-23:05:44
attr experiment DSCP
attr inifile omnetpp.ini
attr iterationvars ""
attr iterationvarsf ""
attr measurement ""
attr network Multihop
attr processid 70404
attr repetition 0
attr replication #0
attr resultdir results
attr runnumber 0
attr seedset 0
param *.hostA.numApps 2
param *.hostA.app[0].dscp 0
param *.hostA.app[0].packetName "\"UDPData-Standard\""
param *.hostA.app[1].typename "\"UdpBasicApp\""
param *.hostA.app[1].destAddresses "\"hostB\""
param *.hostA.app[1].destPort 5000
param *.hostA.app[1].messageLength 1000B
param *.hostA.app[1].sendInterval exponential(12ms)
param *.hostA.app[1].packetName "\"UDPData-Priority\""
param *.hostA.app[1].dscp 14
param *.radioMedium.typename "\"ApskScalarRadioMedium\""
param *.radioMedium.backgroundNoise.power -110dBm
param *.radioMedium.mediumLimitCache.centerFrequency 2.4GHz
param *.host*.wlan[0].radio.typename "\"ApskScalarRadio\""
param *.host*.wlan[0].radio.centerFrequency 2.4GHz
param *.host*.wlan[0].radio.bandwidth 5MHz
param *.host*.wlan[0].radio.transmitter.modulation "\"QPSK\""
param *.host*.wlan[0].radio.transmitter.power 10mW
param *.host*.wlan[0].radio.transmitter.preambleDuration 10us
param *.host*.wlan[0].radio.transmitter.headerLength 8B
param *.host*.wlan[0].radio.receiver.modulation "\"QPSK\""
param *.host*.wlan[0].radio.receiver.sensitivity -120dBm
param *.host*.wlan[0].radio.receiver.energyDetection -100dBm
param *.host*.wlan[0].radio.receiver.snirThreshold 4dB
param *.host*.ipv4.arp.typename "\"GlobalArp\""
param *.host*.forwarding true
param *.configurator.optimizeRoutes false
param *.hostA.numApps 1
param *.hostA.app[0].typename "\"UdpBasicApp\""
param *.hostA.app[0].destAddresses "\"hostB\""
param *.hostA.app[0].destPort 5000
param *.hostA.app[0].messageLength 1000B
param *.hostA.app[0].sendInterval exponential(12ms)
param *.hostA.app[0].packetName "\"UDPData\""
param *.hostB.numApps 1
param *.hostB.app[0].typename "\"UdpSink\""
param *.hostB.app[0].localPort 5000
param *.host*.wlan[0].typename "\"WirelessInterface\""
param *.host*.wlan[0].radio.typename "\"UnitDiskRadio\""
param *.host*.wlan[0].radio.transmitter.communicationRange 300m
param *.host*.wlan[0].radio.transmitter.interferenceRange 500m
param *.host*.wlan[0].mac.typename "\"CsmaCaMac\""
param *.host*.wlan[0].mac.ackTimeout 300us
param *.host*.wlan[0].mac.useAck true
param *.host*.wlan[0].queue.typename "\"DropTailQueue\""
param *.host*.**.bitrate 1Mbps
param *.hostA.wlan[0].radio.displayCommunicationRange true
param *.hostC.wlan[0].radio.displayCommunicationRange true
param *.configurator.addStaticRoutes false
param *.host*.typename "\"AodvRouter\""
param *.host*.mobility.typename "\"StationaryMobility\""
param *.host*.mobility.initialZ 0.1m
param *.physicalEnvironment.config "xmldoc(\"mine.xml\")"
param *.radioMedium.obstacleLoss.typename "\"IdealObstacleLoss\""
param *.visualizer.sceneVisualizer.descriptionFigure "\"title\""
param *.visualizer.physicalLinkVisualizer.displayLinks true
param *.visualizer.physicalLinkVisualizer.packetFilter "\"UDPData*\""

vector 0 Multihop.hostA.wlan[0].radio radioMode:vector ETV
attr interpolationmode sample-hold
attr source radioModeChanged
attr title "Radio mode, vector"
vector 1 Multihop.hostB.wlan[0].radio radioMode:vector ETV
attr interpolationmode sample-hold
attr source radioModeChanged
attr title "Radio mode, vector"
vector 2 Multihop.hostC.wlan[0].radio radioMode:vector ETV
attr interpolationmode sample-hold
attr source radioModeChanged
attr title "Radio mode, vector"
vector 3 Multihop.hostD.wlan[0].radio radioMode:vector ETV
attr interpolationmode sample-hold
attr source radioModeChanged
attr title "Radio mode, vector"
vector 4 Multihop.hostE.wlan[0].radio radioMode:vector ETV
attr interpolationmode sample-hold
attr source radioModeChanged
attr title "Radio mode, vector"
vector 5 Multihop.hostF.wlan[0].radio radioMode:vector ETV
attr interpolationmode sample-hold
attr source radioModeChanged
attr title "Radio mode, vector"
vector 6 Multihop.hostG.wlan[0].radio radioMode:vector ETV
attr interpolationmode sample-hold
attr source radioModeChanged
attr title "Radio mode, vector"
vector 7 Multihop.hostH.wlan[0].radio radioMode:vector ETV
attr interpolationmode sample-hold
attr source radioModeChanged
attr title "Radio mode, vector"
vector 8 Multihop.hostA.wlan[0].radio receptionState:vector ETV
attr interpolationmode sample-hold
attr source receptionStateChanged
attr title "Radio reception state, vector"
vector 9 Multihop.hostB.wlan[0].radio receptionState:vector ETV
attr interpolationmode sample-hold
attr source receptionStateChanged
attr title "Radio reception state, vector"
vector 10 Multihop.hostC.wlan[0].radio receptionState:vector ETV
attr interpolationmode sample-hold
attr source receptionStateChanged
attr title "Radio reception state, vector"
vector 11 Multihop.hostD.wlan[0].radio receptionState:vector ETV
attr interpolationmode sample-hold
attr source receptionStateChanged
attr title "Radio reception state, vector"
vector 12 Multihop.hostE.wlan[0].radio receptionState:vector ETV
attr interpolationmode sample-hold
attr source receptionStateChanged
attr title "Radio reception state, vector"
vector 13 Multihop.hostF.wlan[0].radio receptionState:vector ETV
attr interpolationmode sample-hold
attr source receptionStateChanged
attr title "Radio reception state, vector"
vector 14 Multihop.hostG.wlan[0].radio receptionState:vector ETV
attr interpolationmode sample-hold
attr source receptionStateChanged
attr title "Radio reception state, vector"
vector 15 Multihop.hostH.wlan[0].radio receptionState:vector ETV
attr interpolationmode sample-hold
attr source receptionStateChanged
attr title "Radio reception state, vector"
vector 16 Multihop.hostA.app[0] packetSent:vector(packetBytes) ETV
attr interpolationmode none
attr source packetSent
attr title "packets sent, vector(packetBytes)"
vector 17 Multihop logPacketSent:vector(count) ETV
attr source hostA.app[0].packetSent
vector 18 Multihop.hostA.udp packetSent:vector(packetBytes) ETV
attr interpolationmode none
attr source packetSent
attr title "packets sent, vector(packetBytes)"
vector 19 Multihop.hostA.wlan[0].mac.queue packetPushed:vector(packetBytes) ETV
attr interpolationmode none
attr title "packet pushed, vector(packetBytes)"
vector 20 Multihop.hostA.wlan[0].mac.queue queueLength:vector ETV
attr interpolationmode sample-hold
attr source "count(packetPushed) - count(packetPopped) - count(packetRemoved) - count(packetDropped)"
attr title "queue length, vector"
vector 21 Multihop.hostA.wlan[0].mac.queue packetPopped:vector(packetBytes) ETV
attr interpolationmode none
attr title "packet popped, vector(packetBytes)"
vector 22 Multihop.hostA.wlan[0].mac.queue queueingTime:vector ETV
attr interpolationmode none
attr source queueingTime(packetPopped)
attr title "queueing times, vector"
attr unit s
vector 23 Multihop.hostA.wlan[0].radio transmissionState:vector ETV
attr interpolationmode sample-hold
attr source transmissionStateChanged
attr title "Radio transmission state, vector"
vector 24 Multihop.hostC.udp packetReceived:vector(packetBytes) ETV
attr interpolationmode none
attr source packetReceived
attr title "packets received, vector(packetBytes)"
vector 25 Multihop.hostC.udp passedUpPk:vector(count) ETV
attr interpolationmode none
attr source packetSentToUpper
attr title "packets passed up, vector(count)"
vector 26 Multihop.hostD.udp packetReceived:vector(packetBytes) ETV
attr interpolationmode none
attr source packetReceived
attr title "packets received, vector(packetBytes)"
vector 27 Multihop.hostD.udp passedUpPk:vector(count) ETV
attr interpolationmode none
attr source packetSentToUpper
attr title "packets passed up, vector(count)"
vector 28 Multihop.hostD.udp packetSent:vector(packetBytes) ETV
attr interpolationmode none
attr source packetSent
attr title "packets sent, vector(packetBytes)"
vector 29 Multihop.hostD.wlan[0].mac.queue packetPushed:vector(packetBytes) ETV
attr interpolationmode none
attr title "packet pushed, vector(packetBytes)"
vector 30 Multihop.hostD.wlan[0].mac.queue queueLength:vector ETV
attr interpolationmode sample-hold
attr source "count(packetPushed) - count(packetPopped) - count(packetRemoved) - count(packetDropped)"
attr title "queue length, vector"
vector 31 Multihop.hostD.wlan[0].mac.queue packetPopped:vector(packetBytes) ETV
attr interpolationmode none
attr title "packet popped, vector(packetBytes)"
vector 32 Multihop.hostD.wlan[0].mac.queue queueingTime:vector ETV
attr interpolationmode none
attr source queueingTime(packetPopped)
attr title "queueing times, vector"
attr unit s
vector 33 Multihop.hostA.app[1] packetSent:vector(packetBytes) ETV
attr interpolationmode none
attr source packetSent
attr title "packets sent, vector(packetBytes)"
vector 34 Multihop.hostD.wlan[0].radio transmissionState:vector ETV
attr interpolationmode sample-hold
attr source transmissionStateChanged
attr title "Radio transmission state, vector"
vector 35 Multihop.hostC.udp packetSent:vector(packetBytes) ETV
attr interpolationmode none
attr source packetSent
attr title "packets sent, vector(packetBytes)"
vector 36 Multihop.hostC.wlan[0].mac.queue packetPushed:vector(packetBytes) ETV
attr interpolationmode none
attr title "packet pushed, vector(packetBytes)"
vector 37 Multihop.hostC.wlan[0].mac.queue queueLength:vector ETV
attr interpolationmode sample-hold
attr source "count(packetPushed) - count(packetPopped) - count(packetRemoved) - count(packetDropped)"
attr title "queue length, vector"
vector 38 Multihop.hostC.wlan[0].mac.queue packetPopped:vector(packetBytes) ETV
attr interpolationmode none
attr title "packet popped, vector(packetBytes)"
vector 39 Multihop.hostC.wlan[0].mac.queue queueingTime:vector ETV
attr interpolationmode none
attr source queueingTime(packetPopped)
attr title "queueing times, vector"
attr unit s
vector 40 Multihop.hostF.udp packetReceived:vector(packetBytes) ETV
attr interpolationmode none
attr source packetReceived
attr title "packets received, vector(packetBytes)"
vector 41 Multihop.hostF.udp passedUpPk:vector(count) ETV
attr interpolationmode none
attr source packetSentToUpper
attr title "packets passed up, vector(count)"
vector 42 Multihop.hostA.udp packetReceived:vector(packetBytes) ETV
attr interpolationmode none
attr source packetReceived
attr title "packets received, vector(packetBytes)"
vector 43 Multihop.hostA.udp passedUpPk:vector(count) ETV
attr interpolationmode none
attr source packetSentToUpper
attr title "packets passed up, vector(count)"
vector 44 Multihop.hostH.udp packetReceived:vector(packetBytes) ETV
attr interpolationmode none
attr source packetReceived
attr title "packets received, vector(packetBytes)"
vector 45 Multihop.hostH.udp passedUpPk:vector(count) ETV
attr interpolationmode none
attr source packetSentToUpper
attr title "packets passed up, vector(count)"
vector 46 Multihop.hostC.wlan[0].radio transmissionState:vector ETV
attr interpolationmode sample-hold
attr source transmissionStateChanged
attr title "Radio transmission state, vector"
vector 47 Multihop.hostE.udp packetReceived:vector(packetBytes) ETV
attr interpolationmode none
attr source packetReceived
attr title "packets received, vector(packetBytes)"
vector 48 Multihop.hostE.udp passedUpPk:vector(count) ETV
attr interpolationmode none
attr source packetSentToUpper
attr title "packets passed up, vector(count)"
vector 49 Multihop.hostG.udp packetReceived:vector(packetBytes) ETV
attr interpolationmode none
attr source packetReceived
attr title "packets received, vector(packetBytes)"
vector 50 Multihop.hostG.udp passedUpPk:vector(count) ETV
attr interpolationmode none
attr source packetSentToUpper
attr title "packets passed up, vector(count)"
vector 51 Multihop.hostF.udp packetSent:vector(packetBytes) ETV
attr interpolationmode none
attr source packetSent
attr title "packets sent, vector(packetBytes)"
vector 52 Multihop.hostF.wlan[0].mac.queue packetPushed:vector(packetBytes) ETV
attr interpolationmode none
attr title "packet pushed, vector(packetBytes)"
vector 53 Multihop.hostF.wlan[0].mac.queue queueLength:vector ETV
attr interpolationmode sample-hold
attr source "count(packetPushed) - count(packetPopped) - count(packetRemoved) - count(packetDropped)"
attr title "queue length, vector"
vector 54 Multihop.hostF.wlan[0].mac.queue packetPopped:vector(packetBytes) ETV
attr interpolationmode none
attr title "packet popped, vector(packetBytes)"
vector 55 Multihop.hostF.wlan[0].mac.queue queueingTime:vector ETV
attr interpolationmode none
attr source queueingTime(packetPopped)
attr title "queueing times, vector"
attr unit s
vector 56 Multihop.hostF.wlan[0].radio transmissionState:vector ETV
attr interpolationmode sample-hold
attr source transmissionStateChanged
attr title "Radio transmission state, vector"
vector 57 Multihop.hostD.wlan[0].mac packetDropIncorrectlyReceived:vector(packetBytes) ETV
attr interpolationmode none
attr source packetDropReasonIsIncorrectlyReceived(packetDropped)
attr title "packet drop: incorrectly received, vector(packetBytes)"
vector 58 Multihop.hostE.wlan[0].mac packetDropIncorrectlyReceived:vector(packetBytes) ETV
attr interpolationmode none
attr source packetDropReasonIsIncorrectlyReceived(packetDropped)
attr title "packet drop: incorrectly received, vector(packetBytes)"
vector 59 Multihop.hostH.udp packetSent:vector(packetBytes) ETV
attr interpolationmode none
attr source packetSent
attr title "packets sent, vector(packetBytes)"
vector 60 Multihop.hostH.wlan[0].mac.queue packetPushed:vector(packetBytes) ETV
attr interpolationmode none
attr title "packet pushed, vector(packetBytes)"
vector 61 Multihop.hostH.wlan[0].mac.queue queueLength:vector ETV
attr interpolationmode sample-hold
attr source "count(packetPushed) - count(packetPopped) - count(packetRemoved) - count(packetDropped)"
attr title "queue length, vector"
vector 62 Multihop.hostH.wlan[0].mac.queue packetPopped:vector(packetBytes) ETV
attr interpolationmode none
attr title "packet popped, vector(packetBytes)"
vector 63 Multihop.hostH.wlan[0].mac.queue queueingTime:vector ETV
attr interpolationmode none
attr source queueingTime(packetPopped)
attr title "queueing times, vector"
attr unit s
vector 64 Multihop.hostH.wlan[0].radio transmissionState:vector ETV
attr interpolationmode sample-hold
attr source transmissionStateChanged
attr title "Radio transmission state, vector"
vector 65 Multihop.hostB.wlan[0].radio bitErrorRate:vector ETV
attr source bitErrorRate(packetSentToUpper)
attr title "Bit error rate, vector"
vector 66 Multihop.hostB.udp packetReceived:vector(packetBytes) ETV
attr interpolationmode none
attr source packetReceived
attr title "packets received, vector(packetBytes)"
vector 67 Multihop.hostB.udp passedUpPk:vector(count) ETV
attr interpolationmode none
attr source packetSentToUpper
attr title "packets passed up, vector(count)"
vector 68 Multihop.hostB.udp packetSent:vector(packetBytes) ETV
attr interpolationmode none
attr source packetSent
attr title "packets sent, vector(packetBytes)"
vector 69 Multihop.hostB.wlan[0].mac.queue packetPushed:vector(packetBytes) ETV
attr interpolationmode none
attr title "packet pushed, vector(packetBytes)"
vector 70 Multihop.hostB.wlan[0].mac.queue queueLength:vector ETV
attr interpolationmode sample-hold
attr source "count(packetPushed) - count(packetPopped) - count(packetRemoved) - count(packetDropped)"
attr title "queue length, vector"
vector 71 Multihop.hostB.wlan[0].mac.queue packetPopped:vector(packetBytes) ETV
attr interpolationmode none
attr title "packet popped, vector(packetBytes)"
vector 72 Multihop.hostB.wlan[0].mac.queue queueingTime:vector ETV
attr interpolationmode none
attr source queueingTime(packetPopped)
attr title "queueing times, vector"
attr unit s
vector 73 Multihop.hostB.wlan[0].radio transmissionState:vector ETV
attr interpolationmode sample-hold
attr source transmissionStateChanged
attr title "Radio transmission state, vector"
vector 74 Multihop.hostG.wlan[0].mac packetDropNotAddressedToUs:vector(packetBytes) ETV
attr interpolationmode none
attr source packetDropReasonIsNotAddressedToUs(packetDropped)
attr title "packet drop: not addressed to us, vector(packetBytes)"
vector 75 Multihop.hostG.udp packetSent:vector(packetBytes) ETV
attr interpolationmode none
attr source packetSent
attr title "packets sent, vector(packetBytes)"
vector 76 Multihop.hostG.wlan[0].mac.queue packetPushed:vector(packetBytes) ETV
attr interpolationmode none
attr title "packet pushed, vector(packetBytes)"
vector 77 Multihop.hostG.wlan[0].mac.queue queueLength:vector ETV
attr interpolationmode sample-hold
attr source "count(packetPushed) - count(packetPopped) - count(packetRemoved) - count(packetDropped)"
attr title "queue length, vector"
vector 78 Multihop.hostG.wlan[0].mac.queue packetPopped:vector(packetBytes) ETV
attr interpolationmode none
attr title "packet popped, vector(packetBytes)"
vector 79 Multihop.hostG.wlan[0].mac.queue queueingTime:vector ETV
attr interpolationmode none
attr source queueingTime(packetPopped)
attr title "queueing times, vector"
attr unit s
vector 80 Multihop.hostG.wlan[0].radio transmissionState:vector ETV
attr interpolationmode sample-hold
attr source transmissionStateChanged
attr title "Radio transmission state, vector"
vector 81 Multihop.hostB.wlan[0].mac packetDropNotAddressedToUs:vector(packetBytes) ETV
attr interpolationmode none
attr source packetDropReasonIsNotAddressedToUs(packetDropped)
attr title "packet drop: not addressed to us, vector(packetBytes)"
vector 82 Multihop.hostF.wlan[0].mac packetDropNotAddressedToUs:vector(packetBytes) ETV
attr interpolationmode none
attr source packetDropReasonIsNotAddressedToUs(packetDropped)
attr title "packet drop: not addressed to us, vector(packetBytes)"
vector 83 Multihop.hostE.udp packetSent:vector(packetBytes) ETV
attr interpolationmode none
attr source packetSent
attr title "packets sent, vector(packetBytes)"
vector 84 Multihop.hostE.wlan[0].mac.queue packetPushed:vector(packetBytes) ETV
attr interpolationmode none
attr title "packet pushed, vector(packetBytes)"
vector 85 Multihop.hostE.wlan[0].mac.queue queueLength:vector ETV
attr interpolationmode sample-hold
attr source "count(packetPushed) - count(packetPopped) - count(packetRemoved) - count(packetDropped)"
attr title "queue length, vector"
vector 86 Multihop.hostE.wlan[0].mac.queue packetPopped:vector(packetBytes) ETV
attr interpolationmode none
attr title "packet popped, vector(packetBytes)"
vector 87 Multihop.hostE.wlan[0].mac.queue queueingTime:vector ETV
attr interpolationmode none
attr source queueingTime(packetPopped)
attr title "queueing times, vector"
attr unit s
vector 88 Multihop.hostE.wlan[0].radio transmissionState:vector ETV
attr interpolationmode sample-hold
attr source transmissionStateChanged
attr title "Radio transmission state, vector"
vector 89 Multihop.hostC.wlan[0].mac packetDropNotAddressedToUs:vector(packetBytes) ETV
attr interpolationmode none
attr source packetDropReasonIsNotAddressedToUs(packetDropped)
attr title "packet drop: not addressed to us, vector(packetBytes)"
vector 90 Multihop.hostH.wlan[0].mac packetDropNotAddressedToUs:vector(packetBytes) ETV
attr interpolationmode none
attr source packetDropReasonIsNotAddressedToUs(packetDropped)
attr title "packet drop: not addressed to us, vector(packetBytes)"
vector 91 Multihop.hostA.wlan[0].mac packetDropNotAddressedToUs:vector(packetBytes) ETV
attr interpolationmode none
attr source packetDropReasonIsNotAddressedToUs(packetDropped)
attr title "packet drop: not addressed to us, vector(packetBytes)"
vector 92 Multihop.hostB.app[0] packetReceived:vector(packetBytes) ETV
attr interpolationmode none
attr source packetReceived
attr title "packets received, vector(packetBytes)"
vector 93 Multihop.hostB.app[0] throughput:vector ETV
attr source throughput(packetReceived)
attr title "throughput, vector"
attr unit bps
vector 94 Multihop.hostB.app[0] endToEndDelay:vector ETV
attr interpolationmode none
attr source dataAge(packetReceived)
attr title "end-to-end delay, vector"
attr unit s
vector 95 Multihop.hostB.app[0] rcvdPkSeqNo:vector ETV
attr interpolationmode none
attr source appPkSeqNo(packetReceived)
attr title "received packet sequence number, vector"
vector 96 Multihop logPacketReceived:vector(count) ETV
attr source hostB.app[0].packetReceived
vector 97 Multihop.hostD.wlan[0].mac packetDropNotAddressedToUs:vector(packetBytes) ETV
attr interpolationmode none
attr source packetDropReasonIsNotAddressedToUs(packetDropped)
attr title "packet drop: not addressed to us, vector(packetBytes)"
vector 98 Multihop.hostA.wlan[0].mac packetDropRetryLimitReached:vector(packetBytes) ETV
attr interpolationmode none
attr source packetDropReasonIsRetryLimitReached(packetDropped)
attr title "packet drop: retry limit reached, vector(packetBytes)"
vector 99 Multihop.hostC.wlan[0].mac packetDropIncorrectlyReceived:vector(packetBytes) ETV
attr interpolationmode none
attr source packetDropReasonIsIncorrectlyReceived(packetDropped)
attr title "packet drop: incorrectly received, vector(packetBytes)"
vector 100 Multihop.hostE.wlan[0].mac packetDropNotAddressedToUs:vector(packetBytes) ETV
attr interpolationmode none
attr source packetDropReasonIsNotAddressedToUs(packetDropped)
attr title "packet drop: not addressed to us, vector(packetBytes)"
vector 101 Multihop.hostH.wlan[0].mac packetDropIncorrectlyReceived:vector(packetBytes) ETV
attr interpolationmode none
attr source packetDropReasonIsIncorrectlyReceived(packetDropped)
attr title "packet drop: incorrectly received, vector(packetBytes)"
vector 102 Multihop.hostF.wlan[0].mac packetDropIncorrectlyReceived:vector(packetBytes) ETV
attr interpolationmode none
attr source packetDropReasonIsIncorrectlyReceived(packetDropped)
attr title "packet drop: incorrectly received, vector(packetBytes)"
vector 103 Multihop.hostG.wlan[0].mac packetDropIncorrectlyReceived:vector(packetBytes) ETV
attr interpolationmode none
attr source packetDropReasonIsIncorrectlyReceived(packetDropped)
attr title "packet drop: incorrectly received, vector(packetBytes)"
vector 104 Multihop.hostD.wlan[0].mac packetDropRetryLimitReached:vector(packetBytes) ETV
attr interpolationmode none
attr source packetDropReasonIsRetryLimitReached(packetDropped)
attr title "packet drop: retry limit reached, vector(packetBytes)"
vector 105 Multihop.hostG.wlan[0].mac packetDropRetryLimitReached:vector(packetBytes) ETV
attr interpolationmode none
attr source packetDropReasonIsRetryLimitReached(packetDropped)
attr title "packet drop: retry limit reached, vector(packetBytes)"
vector 106 Multihop.hostB.wlan[0].mac packetDropIncorrectlyReceived:vector(packetBytes) ETV
attr interpolationmode none
attr source packetDropReasonIsIncorrectlyReceived(packetDropped)
attr title "packet drop: incorrectly received, vector(packetBytes)"
vector 107 Multihop.hostC.wlan[0].mac packetDropRetryLimitReached:vector(packetBytes) ETV
attr interpolationmode none
attr source packetDropReasonIsRetryLimitReached(packetDropped)
attr title "packet drop: retry limit reached, vector(packetBytes)"
vector 108 Multihop.hostA.app[0] throughput:vector ETV
attr source throughput(packetReceived)
attr title "throughput, vector"
attr unit bps
vector 109 Multihop.hostA.app[1] throughput:vector ETV
attr source throughput(packetReceived)
attr title "throughput, vector"
attr unit bps
0	0	0	0
0	0	0	0
0	0	0	2
0	30	0.019219794264	3
0	39	0.019877794264	2
0	298	0.337584794926	3
0	307	0.338242794926	2
0	719	0.355200505181	3
0	728	0.355418505181	2
0	739	0.355668505181	3
0	752	0.364134505181	2
0	830	0.373550840129	3
0	868	0.382016840129	2
0	914	0.383066840129	3
0	925	0.391532840129	2
0	1010	0.400929175077	3
0	1034	0.409395175077	2
0	1121	0.418971843589	3
0	1149	0.427437843589	2
0	1184	0.427718178537	3
0	1194	0.436184178537	2
0	1229	0.436904513485	3
0	1248	0.445370513485	2
0	1334	0.454366848433	3
0	1372	0.462832848433	2
0	1446	0.472469516945	3
0	1466	0.480935516945	2
0	1557	0.490251851893	3
0	1581	0.498717851893	2
0	1627	0.499147851893	3
0	1642	0.507613851893	2
0	1677	0.508114186841	3
0	1693	0.516580186841	2
0	1771	0.525636521789	3
0	1809	0.534102521789	2
0	1904	0.543899190301	3
0	1929	0.552365190301	2
0	2097	0.572128527325	3
0	2152	0.580594527325	2
0	2167	0.582344527325	3
0	2212	0.590810527325	2
0	2279	0.599818862273	3
0	2314	0.608284862273	2
0	2493	0.628268199297	3
0	2547	0.636734199297	2
0	2597	0.657524199297	3
0	2610	0.665990199297	2
0	2645	0.666490534245	3
0	2670	0.674956534245	2
0	2793	0.692859537705	3
0	2835	0.701325537705	2
0	2891	0.702695537705	3
0	2940	0.711161537705	2
0	3025	0.720349872653	3
0	3068	0.728815872653	2
0	3090	0.729785872653	3
0	3116	0.738251872653	2
0	3199	0.747288207601	3
0	3228	0.755754207601	2
0	3273	0.756904207601	3
0	3300	0.765370207601	2
0	3337	0.765970542549	3
0	3351	0.774436542549	2
0	3482	0.792339546009	3
0	3524	0.800805546009	2
0	3581	0.802355546009	3
0	3630	0.810821546009	2
0	3691	0.820269880957	3
0	3718	0.828735880957	2
0	3769	0.830765880957	3
0	3793	0.839231880957	2
0	3890	0.848328215905	3
0	3918	0.856794215905	2
0	3963	0.857524215905	3
0	3978	0.865990215905	2
0	4013	0.866550550853	3
0	4033	0.875016550853	2
0	4068	0.875296885801	3
0	4083	0.883762885801	2
0	4161	0.892899220749	3
0	4199	0.901365220749	2
0	4303	0.911081889261	3
0	4343	0.919547889261	2
0	4434	0.929676224209	3
0	4477	0.938142224209	2
0	4551	0.949210559157	3
0	4608	0.957676559157	2
0	4623	0.959646559157	3
0	4634	0.968112559157	2
0	4669	0.968392894105	3
0	4678	0.976858894105	2
0	4713	0.977359229053	3
0	4728	0.985825229053	2
0	4821	0.995121564001	3
0	4884	1.003587564001	2
0	4948	1.012495898949	3
0	4983	1.020961898949	2
0	5069	1.030838567461	3
0	5089	1.039304567461	2
0	5125	1.039964902409	3
0	5138	1.048430902409	2
0	5232	1.057587237357	3
0	5266	1.066053237357	2
0	5277	1.066523237357	3
0	5334	1.074989237357	2
0	5346	1.075859237357	3
0	5361	1.084325237357	2
0	5400	1.084805572305	3
0	5426	1.093271572305	2
0	5461	1.093811907253	3
0	5476	1.102277907253	2
0	5511	1.102878242201	3
0	5522	1.111344242201	2
0	5557	1.112104577149	3
0	5572	1.120570577149	2
0	5611	1.121150912097	3
0	5626	1.129616912097	2
0	5661	1.130237247045	3
0	5672	1.138703247045	2
0	5707	1.139123581993	3
0	5718	1.147589581993	2
0	5753	1.148269916941	3
0	5772	1.156735916941	2
0	5807	1.157496251889	3
0	5822	1.165962251889	2
0	5919	1.175218586837	3
0	5954	1.183684586837	2
0	6037	1.193392921785	3
0	6087	1.201858921785	2
0	6266	1.229560593757	3
0	6321	1.238026593757	2
0	6333	1.238516593757	3
0	6387	1.246982593757	2
0	6623	1.282846600677	3
0	6669	1.291312600677	2
0	6692	1.296402600677	3
0	6751	1.304868600677	2
0	7011	1.350408607597	3
0	7074	1.358874607597	2
0	7273	1.390217277493	3
0	7300	1.398683277493	2
0	7378	1.407999946005	3
0	7403	1.416465946005	2
0	7472	1.425642280953	3
0	7521	1.434108280953	2
0	7532	1.434618280953	3
0	7580	1.443084280953	2
0	7629	1.451652615901	3
0	7665	1.460118615901	2
0	7775	1.473515284413	3
0	7826	1.481981284413	2
0	7959	1.508456287873	3
0	8020	1.516922287873	2
0	8090	1.536772287873	3
0	8099	1.545238287873	2
0	8134	1.545978622821	3
0	8152	1.554444622821	2
0	8242	1.563760957769	3
0	8271	1.572226957769	2
0	8317	1.572836957769	3
0	8334	1.581302957769	2
0	8425	1.590519292717	3
0	8448	1.598985292717	2
0	8554	1.608421961229	3
0	8599	1.616887961229	2
0	8622	1.619237961229	3
0	8637	1.627703961229	2
0	8723	1.637060296177	3
0	8744	1.645526296177	2
0	8789	1.646516296177	3
0	8803	1.654982296177	2
0	8883	1.663938631125	3
0	8920	1.672404631125	2
0	8969	1.673434631125	3
0	8983	1.681900631125	2
0	9019	1.682740966073	3
0	9042	1.691206966073	2
0	9150	1.700563301021	3
0	9197	1.709029301021	2
0	9294	1.718777635969	3
0	9340	1.727243635969	2
0	9397	1.736091970917	3
0	9434	1.744557970917	2
0	9482	1.746347970917	3
0	9495	1.754813970917	2
0	9594	1.764150305865	3
0	9632	1.772616305865	2
0	9716	1.781844640813	3
0	9758	1.790310640813	2
0	9781	1.791920640813	3
0	9802	1.800386640813	2
0	9837	1.801006975761	3
0	9849	1.809472975761	2
0	9884	1.809773310709	3
0	9895	1.818239310709	2
0	9980	1.827395645657	3
0	10001	1.835861645657	2
0	10037	1.836351645657	3
0	10058	1.844817645657	2
0	10093	1.845317980605	3
0	10105	1.853783980605	2
0	10184	1.862860315553	3
0	10224	1.871326315553	2
0	10271	1.872696315553	3
0	10281	1.881162315553	2
0	10369	1.890418650501	3
0	10392	1.898884650501	2
0	10508	1.908581319013	3
0	10560	1.917047319013	2
0	10684	1.935362322473	3
0	10725	1.943828322473	2
0	10811	1.957376657421	3
0	10866	1.965842657421	2
0	10877	1.970352657421	3
0	10931	1.978818657421	2
0	10946	1.985248657421	3
0	10959	1.993714657421	2
0	10994	1.994234992369	3
0	11017	2.002700992369	2
0	11052	2.003061327317	3
0	11066	2.011527327317	2
0	11136	2.020503662265	3
0	11170	2.028969662265	2
0	11324	2.047172999289	3
0	11350	2.055638999289	2
0	11460	2.066395667801	3
0	11515	2.074861667801	2
0	11526	2.078251667801	3
0	11574	2.086717667801	2
0	11588	2.090107667801	3
0	11602	2.098573667801	2
0	11670	2.107750002749	3
0	11713	2.116216002749	2
0	11798	2.126232671261	3
0	11832	2.134698671261	2
0	11944	2.145855339773	3
0	11990	2.154321339773	2
0	12003	2.156771339773	3
0	12020	2.165237339773	2
0	12055	2.165537674721	3
0	12067	2.174003674721	2
0	12102	2.174384009669	3
0	12113	2.182850009669	2
0	12148	2.183250344617	3
0	12165	2.191716344617	2
0	12203	2.192116679565	3
0	12223	2.200582679565	2
0	12314	2.209759014513	3
0	12347	2.218225014513	2
0	12521	2.245204351537	3
0	12550	2.253670351537	2
0	12709	2.273073688561	3
0	12763	2.281539688561	2
0	12775	2.284749688561	3
0	12836	2.293215688561	2
0	12850	2.295465688561	3
0	12901	2.303931688561	2
0	12916	2.312201688561	3
0	12929	2.320667688561	2
0	13022	2.329904023509	3
0	13045	2.338370023509	2
0	13090	2.339100023509	3
0	13107	2.347566023509	2
0	13200	2.356942358457	3
0	13241	2.365408358457	2
0	13262	2.365818358457	3
0	13276	2.374284358457	2
0	13316	2.374884693405	3
0	13339	2.383350693405	2
0	13386	2.384100693405	3
0	13434	2.392566693405	2
0	13448	2.395456693405	3
0	13459	2.403922693405	2
0	13536	2.413319028353	3
0	13573	2.421785028353	2
0	13619	2.422415028353	3
0	13636	2.430881028353	2
0	13674	2.431621363301	3
0	13692	2.440087363301	2
0	13727	2.440807698249	3
0	13738	2.449273698249	2
0	13773	2.449594033197	3
0	13787	2.458060033197	2
0	13872	2.467156368145	3
0	13893	2.475622368145	2
0	14053	2.494025705169	3
0	14079	2.502491705169	2
0	14164	2.513308373681	3
0	14211	2.521774373681	2
0	14329	2.541649377141	3
0	14384	2.550115377141	2
0	14395	2.553605377141	3
0	14443	2.562071377141	2
0	14457	2.567021377141	3
0	14477	2.575487377141	2
0	14517	2.575967712089	3
0	14540	2.584433712089	2
0	14589	2.585983712089	3
0	14634	2.594449712089	2
0	14646	2.596819712089	3
0	14660	2.605285712089	2
0	14695	2.605726047037	3
0	14704	2.614192047037	2
0	14800	2.623548381985	3
0	14838	2.632014381985	2
0	14917	2.641462716933	3
0	14972	2.649928716933	2
0	14985	2.652258716933	3
0	14999	2.660724716933	2
0	15034	2.661025051881	3
0	15046	2.669491051881	2
0	15081	2.669771386829	3
0	15092	2.678237386829	2
0	15127	2.678977721777	3
0	15138	2.687443721777	2
0	15214	2.696340056725	3
0	15251	2.704806056725	2
0	15262	2.705456056725	3
0	15310	2.713922056725	2
0	15382	2.722950391673	3
0	15404	2.731416391673	2
0	15544	2.752029060185	3
0	15598	2.760495060185	2
0	15670	2.774463395133	3
0	15721	2.782929395133	2
0	15846	2.809537730081	3
0	15863	2.818003730081	2
0	15898	2.818364065029	3
0	15913	2.826830065029	2
0	15948	2.827150399977	3
0	15971	2.835616399977	2
0	16055	2.844812734925	3
0	16080	2.853278734925	2
0	16115	2.853708734925	3
0	16142	2.862174734925	2
0	16177	2.862475069873	3
0	16195	2.870941069873	2
0	16230	2.871241404821	3
0	16244	2.879707404821	2
0	16326	2.889123739769	3
0	16353	2.897589739769	2
0	16402	2.898259739769	3
0	16425	2.906725739769	2
0	16551	2.924548743229	3
0	16588	2.933014743229	2
0	16635	2.934124743229	3
0	16655	2.942590743229	2
0	16816	2.961023080945	3
0	16851	2.969489080945	2
0	16944	2.980117415893	3
0	17001	2.988583415893	2
0	17125	3.005365085097	3
0	17154	3.013831085097	2
0	17204	3.019861085097	3
0	17218	3.028327085097	2
0	17253	3.028787420045	3
0	17265	3.037253420045	2
0	17300	3.037753754993	3
0	17314	3.046219754993	2
0	17410	3.055396089941	3
0	17439	3.063862089941	2
0	17573	3.082045426965	3
0	17613	3.090511426965	2
0	17669	3.091521426965	3
0	17717	3.099987426965	2
0	17786	3.109435761913	3
0	17837	3.117901761913	2
0	17859	3.126571761913	3
0	17885	3.135037761913	2
0	17956	3.144154096861	3
0	17990	3.152620096861	2
0	18001	3.153290096861	3
0	18046	3.161756096861	2
0	18120	3.171664431809	3
0	18167	3.180130431809	2
0	18183	3.184180431809	3
0	18194	3.192646431809	2
0	18302	3.201982766757	3
0	18343	3.210448766757	2
0	18364	3.211338766757	3
0	18375	3.219804766757	2
0	18452	3.228901101705	3
0	18486	3.237367101705	2
0	18522	3.238337101705	3
0	18543	3.246803101705	2
0	18578	3.247363436653	3
0	18590	3.255829436653	2
0	18675	3.264985771601	3
0	18699	3.273451771601	2
0	18813	3.283468440113	3
0	18861	3.291934440113	2
0	18910	3.300682775061	3
0	18950	3.309148775061	2
0	19059	3.321005443573	3
0	19104	3.329471443573	2
0	19125	3.338341443573	3
0	19150	3.346807443573	2
0	19191	3.347147778521	3
0	19207	3.355613778521	2
0	19295	3.364870113469	3
0	19319	3.373336113469	2
0	19406	3.383412781981	3
0	19420	3.391878781981	2
0	19492	3.400995116929	3
0	19529	3.409461116929	2
0	19609	3.418917785441	3
0	19624	3.427383785441	2
0	19662	3.428124120389	3
0	19678	3.436590120389	2
0	19716	3.437150455337	3
0	19727	3.445616455337	2
0	19762	3.446436790285	3
0	19779	3.454902790285	2
0	19855	3.464279125233	3
0	19898	3.472745125233	2
0	19948	3.474195125233	3
0	19958	3.482661125233	2
0	19994	3.483181460181	3
0	20011	3.491647460181	2
0	20046	3.492507795129	3
0	20057	3.500973795129	2
0	20095	3.501414130077	3
0	20109	3.509880130077	2
0	20144	3.510420465025	3
0	20170	3.518886465025	2
0	20205	3.519266799973	3
0	20219	3.527732799973	2
0	20254	3.528193134921	3
0	20271	3.536659134921	2
0	20306	3.537539469869	3
0	20317	3.546005469869	2
0	20353	3.546705804817	3
0	20369	3.555171804817	2
0	20404	3.555792139765	3
0	20421	3.564258139765	2
0	20456	3.564858474713	3
0	20470	3.573324474713	2
0	20505	3.573724809661	3
0	20525	3.582190809661	2
0	20560	3.583071144609	3
0	20577	3.591537144609	2
0	20612	3.591877479557	3
0	20626	3.600343479557	2
0	20661	3.601003814505	3
0	20678	3.609469814505	2
0	20713	3.610330149453	3
0	20730	3.618796149453	2
0	20765	3.619456484401	3
0	20782	3.627922484401	2
0	20817	3.628622819349	3
0	20837	3.637088819349	2
0	20873	3.637949154297	3
0	20886	3.646415154297	2
0	20921	3.647055489245	3
0	20932	3.655521489245	2
0	21008	3.664637824193	3
0	21042	3.673103824193	2
0	21056	3.673493824193	3
0	21110	3.681959824193	2
0	21130	3.684009824193	3
0	21143	3.692475824193	2
0	21178	3.692756159141	3
0	21190	3.701222159141	2
0	21225	3.701702494089	3
0	21236	3.710168494089	2
0	21271	3.710648829037	3
0	21291	3.719114829037	2
0	21326	3.719415163985	3
0	21337	3.727881163985	2
0	21372	3.728421498933	3
0	21389	3.736887498933	2
0	21424	3.737307833881	3
0	21441	3.745773833881	2
0	21476	3.746414168829	3
0	21493	3.754880168829	2
0	21528	3.755520503777	3
0	21545	3.763986503777	2
0	21580	3.764746838725	3
0	21591	3.773212838725	2
0	21626	3.773873173673	3
0	21640	3.782339173673	2
0	21675	3.782859508621	3
0	21686	3.791325508621	2
0	21721	3.791665843569	3
0	21735	3.800131843569	2
0	21770	3.800452178517	3
0	21790	3.808918178517	2
0	21825	3.809398513465	3
0	21836	3.817864513465	2
0	21871	3.818244848413	3
0	21882	3.826710848413	2
0	21917	3.827191183361	3
0	21931	3.835657183361	2
0	21966	3.836477518309	3
0	21989	3.844943518309	2
0	22025	3.845703853257	3
0	22035	3.854169853257	2
0	22070	3.854750188205	3
0	22081	3.863216188205	2
0	22116	3.863796523153	3
0	22130	3.872262523153	2
0	22165	3.872802858101	3
0	22176	3.881268858101	2
0	22211	3.881689193049	3
0	22231	3.890155193049	2
0	22266	3.890915527997	3
0	22280	3.899381527997	2
0	22315	3.899801862945	3
0	22326	3.908267862945	2
0	22361	3.908948197893	3
0	22375	3.917414197893	2
0	22410	3.917994532841	3
0	22427	3.926460532841	2
0	22462	3.927140867789	3
0	22476	3.935606867789	2
0	22511	3.936207202737	3
0	22525	3.944673202737	2
0	22560	3.945553537685	3
0	22577	3.954019537685	2
0	22613	3.954679872633	3
0	22623	3.963145872633	2
0	22658	3.963886207581	3
0	22669	3.972352207581	2
0	22704	3.973092542529	3
0	22721	3.981558542529	2
0	22756	3.982178877477	3
0	22770	3.990644877477	2
0	22805	3.991185212425	3
0	22819	3.999651212425	2
0	22862	4.000531547373	3
0	22873	4.008997547373	2
0	22908	4.009377882321	3
0	22925	4.017843882321	2
0	22960	4.018164217269	3
0	22980	4.026630217269	2
0	23018	4.027470552217	3
0	23029	4.035936552217	2
0	23065	4.036656887165	3
0	23078	4.045122887165	2
0	23113	4.045463222113	3
0	23124	4.053929222113	2
0	23159	4.054709557061	3
0	23173	4.063175557061	2
0	23208	4.063515892009	3
0	23222	4.071981892009	2
0	23257	4.072282226957	3
0	23271	4.080748226957	2
0	23306	4.081108561905	3
0	23320	4.089574561905	2
0	23355	4.090214896853	3
0	23366	4.098680896853	2
0	23401	4.099501231801	3
0	23412	4.107967231801	2
0	23447	4.108247566749	3
0	23464	4.116713566749	2
0	23499	4.117073901697	3
0	23516	4.125539901697	2
0	23586	4.134556236645	3
0	23635	4.143022236645	2
0	23681	4.143852236645	3
0	23707	4.152318236645	2
0	23742	4.152618571593	3
0	23757	4.161084571593	2
0	23792	4.161724906541	3
0	23803	4.170190906541	2
0	23838	4.170751241489	3
0	23849	4.179217241489	2
0	23887	4.179917576437	3
0	23898	4.188383576437	2
0	23933	4.188763911385	3
0	23947	4.197229911385	2
0	23982	4.197550246333	3
0	23999	4.206016246333	2
0	24034	4.206596581281	3
0	24045	4.215062581281	2
0	24080	4.215482916229	3
0	24103	4.223948916229	2
0	24138	4.224849251177	3
0	24152	4.233315251177	2
0	24187	4.233695586125	3
0	24204	4.242161586125	2
0	24239	4.242821921073	3
0	24262	4.251287921073	2
0	24297	4.251668256021	3
0	24311	4.260134256021	2
0	24346	4.260614590969	3
0	24366	4.269080590969	2
0	24401	4.269860925917	3
0	24415	4.278326925917	2
0	24451	4.279187260865	3
0	24464	4.287653260865	2
0	24500	4.288513595813	3
0	24513	4.296979595813	2
0	24548	4.297459930761	3
0	24568	4.305925930761	2
0	24603	4.306566265709	3
0	24614	4.315032265709	2
0	24652	4.315752600657	3
0	24669	4.324218600657	2
0	24704	4.324778935605	3
0	24718	4.333244935605	2
0	24753	4.334005270553	3
0	24770	4.342471270553	2
0	24805	4.342891605501	3
0	24819	4.351357605501	2
0	24854	4.352097940449	3
0	24868	4.360563940449	2
0	24903	4.360844275397	3
0	24923	4.369310275397	2
0	24958	4.370010610345	3
0	24972	4.378476610345	2
0	25007	4.379296945293	3
0	25030	4.387762945293	2
0	25065	4.388043280241	3
0	25076	4.396509280241	2
0	25111	4.397129615189	3
0	25131	4.405595615189	2
0	25166	4.406055950137	3
0	25183	4.414521950137	2
0	25218	4.415082285085	3
0	25235	4.423548285085	2
0	25270	4.424388620033	3
0	25287	4.432854620033	2
0	25322	4.433374954981	3
0	25336	4.441840954981	2
0	25371	4.442601289929	3
0	25388	4.451067289929	2
0	25423	4.451767624877	3
0	25440	4.460233624877	2
0	25475	4.460993959825	3
0	25495	4.469459959825	2
0	25530	4.470220294773	3
0	25544	4.478686294773	2
0	25583	4.479466629721	3
0	25599	4.487932629721	2
0	25634	4.488572964669	3
0	25651	4.497038964669	2
0	25686	4.497439299617	3
0	25706	4.505905299617	2
0	25741	4.506565634565	3
0	25752	4.515031634565	2
0	25787	4.515651969513	3
0	25804	4.524117969513	2
0	25839	4.524698304461	3
0	25853	4.533164304461	2
0	25888	4.533484639409	3
0	25911	4.541950639409	2
0	25949	4.542850974357	3
0	25960	4.551316974357	2
0	25996	4.551957309305	3
0	26012	4.560423309305	2
0	26047	4.561023644253	3
0	26058	4.569489644253	2
0	26093	4.570149979201	3
0	26104	4.578615979201	2
0	26142	4.579176314149	3
0	26153	4.587642314149	2
0	26188	4.588262649097	3
0	26208	4.596728649097	2
0	26243	4.597448984045	3
0	26254	4.605914984045	2
0	26292	4.606495318993	3
0	26303	4.614961318993	2
0	26341	4.615461653941	3
0	26355	4.623927653941	2
0	26390	4.624647988889	3
0	26404	4.633113988889	2
0	26439	4.633794323837	3
0	26453	4.642260323837	2
0	26488	4.642580658785	3
0	26499	4.651046658785	2
0	26537	4.651826993733	3
0	26551	4.660292993733	2
0	26621	4.669569328681	3
0	26664	4.678035328681	2
0	26710	4.678885328681	3
0	26721	4.687351328681	2
0	26756	4.687891663629	3
0	26780	4.696357663629	2
0	26815	4.697117998577	3
0	26826	4.705583998577	2
0	26861	4.706244333525	3
0	26875	4.714710333525	2
0	26910	4.715490668473	3
0	26927	4.723956668473	2
0	26962	4.724637003421	3
0	26973	4.733103003421	2
0	27008	4.733583338369	3
0	27025	4.742049338369	2
0	27060	4.742469673317	3
0	27071	4.750935673317	2
0	27106	4.751336008265	3
0	27120	4.759802008265	2
0	27155	4.760402343213	3
0	27172	4.768868343213	2
0	27207	4.769588678161	3
0	27221	4.778054678161	2
0	27257	4.778895013109	3
0	27267	4.787361013109	2
0	27302	4.787661348057	3
0	27313	4.788351348057	2
0	27331	4.788821348057	3
0	27340	4.789479348057	2
0	27358	4.789889348057	3
0	27371	4.790547348057	2
0	27389	4.790657348057	3
0	27398	4.791315348057	2
0	27461	4.792535100904	3
0	27474	4.793193100904	2
0	28633	4.806036975341	3
0	28651	4.806254975341	2
0	28690	4.807041976033	3
0	28709	4.807259976033	2
0	28721	4.807709976033	3
0	28868	4.816175976033	2
0	29016	4.834108310981	3
0	29052	4.842574310981	2
0	29137	4.851562645929	3
0	29155	4.860028645929	2
0	29241	4.869123646621	3
0	29265	4.877589646621	2
0	29310	4.878368647313	3
0	29336	4.886834647313	2
0	29449	4.896230982261	3
0	29556	4.904696982261	2
0	29640	4.913771982953	3
0	29669	4.922237982953	2
0	29784	4.931654651465	3
0	29823	4.940120651465	2
0	29904	4.949748986413	3
0	29916	4.958214986413	2
0	30001	4.967349987105	3
0	30025	4.975815987105	2
0	30092	4.976594987797	3
0	30107	4.985060987797	2
0	30192	4.994195988489	3
0	30225	5.002661988489	2
0	30286	5.003080989181	3
0	30318	5.011546989181	2
0	30423	5.020974657001	3
0	30466	5.029440657001	2
0	30571	5.039028991949	3
0	30600	5.047494991949	2
0	30762	5.065367660461	3
0	30786	5.073833660461	2
0	30853	5.074412661153	3
0	30868	5.082878661153	2
0	31007	5.100580330357	3
0	31049	5.109046330357	2
0	31136	5.118294665305	3
0	31185	5.126760665305	2
0	31427	5.162669003021	3
0	31447	5.171135003021	2
0	31516	5.171694003713	3
0	31552	5.180160003713	2
0	31610	5.180519004405	3
0	31641	5.188985004405	2
0	31756	5.198381339353	3
0	31776	5.206847339353	2
0	31892	5.216264007865	3
0	31918	5.224730007865	2
0	32010	5.233725008557	3
0	32032	5.242191008557	2
0	32068	5.242830009249	3
0	32087	5.251296009249	2
0	32186	5.260674012017	3
0	32207	5.269140012017	2
0	32276	5.269719012709	3
0	32296	5.278185012709	2
0	32433	5.287501347657	3
0	32470	5.295967347657	2
0	32517	5.296246348349	3
0	32529	5.304712348349	2
0	32565	5.305571349041	3
0	32578	5.314037349041	2
0	32614	5.314336349733	3
0	32634	5.322802349733	2
0	32741	5.332880352501	3
0	32790	5.341346352501	2
0	32833	5.341705353193	3
0	32866	5.350171353193	2
0	32948	5.359167688141	3
0	32992	5.367633688141	2
0	33024	5.367912688833	3
0	33073	5.376378688833	2
0	33166	5.385713689525	3
0	33198	5.394179689525	2
0	33372	5.412092024473	3
0	33424	5.420558024473	2
0	33460	5.420917025165	3
0	33475	5.429383025165	2
0	33511	5.429862025857	3
0	33522	5.438328025857	2
0	33656	5.456200360805	3
0	33701	5.464666360805	2
0	33768	5.473894695753	3
0	33795	5.482360695753	2
0	33863	5.482839696445	3
0	33882	5.491305696445	2
0	33956	5.500322031393	3
0	33994	5.508788031393	2
0	34043	5.509247032085	3
0	34087	5.517713032085	2
0	34123	5.518532032777	3
0	34139	5.526998032777	2
0	34175	5.527297033469	3
0	34190	5.535763033469	2
0	34282	5.544738034161	3
0	34316	5.553204034161	2
0	34391	5.562892369109	3
0	34414	5.571358369109	2
0	34449	5.571637369801	3
0	34468	5.580103369801	2
0	34504	5.581002370493	3
0	34519	5.589468370493	2
0	34559	5.589807371185	3
0	34578	5.598273371185	2
0	34727	5.615925706133	3
0	34781	5.624391706133	2
0	34794	5.624761706133	3
0	34817	5.633227706133	2
0	34853	5.633646706825	3
0	34871	5.642112706825	2
0	34907	5.642911707517	3
0	34922	5.651377707517	2
0	34958	5.651676708209	3
0	34973	5.660142708209	2
0	35009	5.660781708901	3
0	35024	5.669247708901	2
0	35060	5.670106709593	3
0	35075	5.678572709593	2
0	35111	5.678991710285	3
0	35130	5.687457710285	2
0	35166	5.687876710977	3
0	35177	5.696342710977	2
0	35213	5.697121711669	3
0	35232	5.705587711669	2
0	35269	5.706366712361	3
0	35283	5.714832712361	2
0	35319	5.715311713053	3
0	35334	5.723777713053	2
0	35370	5.724456713745	3
0	35385	5.732922713745	2
0	35469	5.742219048693	3
0	35511	5.750685048693	2
0	35547	5.751104049385	3
0	35596	5.759570049385	2
0	35631	5.760029050077	3
0	35650	5.768495050077	2
0	35686	5.768794050769	3
0	35701	5.777260050769	2
0	35737	5.778099051461	3
0	35764	5.786565051461	2
0	35800	5.787144052153	3
0	35819	5.795610052153	2
0	35855	5.796249052845	3
0	35866	5.804715052845	2
0	35902	5.805414053537	3
0	35925	5.813880053537	2
0	35961	5.814659054229	3
0	35980	5.823125054229	2
0	36016	5.823504054921	3
0	36039	5.831970054921	2
0	36075	5.832289055613	3
0	36086	5.840755055613	2
0	36122	5.841474056305	3
0	36141	5.849940056305	2
0	36229	5.859015056997	3
0	36262	5.867481056997	2
0	36294	5.867760057689	3
0	36351	5.876226057689	2
0	36515	5.894138392637	3
0	36539	5.902604392637	2
0	36579	5.903183393329	3
0	36608	5.911649393329	2
0	36695	5.920776727585	3
0	36740	5.929242727585	2
0	36819	5.938197728277	3
0	36861	5.946663728277	2
0	36929	5.955492063225	3
0	36945	5.963958063225	2
0	36981	5.964597063917	3
0	36995	5.973063063917	2
0	37031	5.973922064609	3
0	37054	5.982388064609	2
0	37090	5.983007065301	3
0	37109	5.991473065301	2
0	37207	6.000749400249	3
0	37243	6.009215400249	2
0	37351	6.018591735197	3
0	37387	6.027057735197	2
0	37444	6.027796735889	3
0	37469	6.036262735889	2
0	37554	6.045359070837	3
0	37579	6.053825070837	2
0	37710	6.063141405785	3
0	37755	6.071607405785	2
0	37853	6.080923740733	3
0	37887	6.089389740733	2
0	37945	6.089868741425	3
0	37978	6.098334741425	2
0	38104	6.116087076373	3
0	38158	6.124553076373	2
0	38225	6.134361411321	3
0	38244	6.142827411321	2
0	38302	6.143466412013	3
0	38327	6.151932412013	2
0	38363	6.152351412705	3
0	38375	6.160817412705	2
0	38463	6.170093747653	3
0	38488	6.178559747653	2
0	38556	6.178978748345	3
0	38571	6.187444748345	2
0	38607	6.187863749037	3
0	38628	6.196329749037	2
0	38664	6.196628749729	3
0	38683	6.205094749729	2
0	38771	6.214231084677	3
0	38792	6.222697084677	2
0	38860	6.223296085369	3
0	38875	6.231762085369	2
0	38963	6.241178420317	3
0	38999	6.249644420317	2
0	39119	6.258740755265	3
0	39159	6.267206755265	2
0	39216	6.267645755957	3
0	39237	6.276111755957	2
0	39342	6.285468090905	3
0	39377	6.293934090905	2
0	39465	6.303250425853	3
0	39501	6.311716425853	2
0	39558	6.312515426545	3
0	39591	6.320981426545	2
0	39664	6.329957761493	3
0	39702	6.338423761493	2
0	39801	6.347760430005	3
0	39814	6.356226430005	2
0	39850	6.356985430697	3
0	39860	6.365451430697	2
0	39897	6.366250431389	3
0	39911	6.374716431389	2
0	39956	6.375555432081	3
0	39970	6.384021432081	2
0	40006	6.384380432773	3
0	40025	6.392846432773	2
0	40061	6.393685433465	3
0	40080	6.402151433465	2
0	40116	6.402550434157	3
0	40131	6.411016434157	2
0	40221	6.420271434849	3
0	40249	6.428737434849	2
0	40342	6.438114103361	3
0	40372	6.446580103361	2
0	40471	6.455876438309	3
0	40490	6.464342438309	2
0	40526	6.465101439001	3
0	40552	6.473567439001	2
0	40588	6.473966439693	3
0	40607	6.482432439693	2
0	40789	6.500364774641	3
0	40808	6.508830774641	2
0	40844	6.509329775333	3
0	40864	6.517795775333	2
0	40900	6.518634776025	3
0	40923	6.527100776025	2
0	40960	6.527939776717	3
0	40974	6.536405776717	2
0	41068	6.545740777409	3
0	41096	6.554206777409	2
0	41230	6.563541778101	3
0	41256	6.572007778101	2
0	41369	6.581282778793	3
0	41405	6.589748778793	2
0	41417	6.591178778793	3
0	41476	6.599644778793	2
0	41493	6.600754778793	3
0	41555	6.609220778793	2
0	41672	6.621478117201	3
0	41733	6.629944117201	2
0	41950	6.662715120661	3
0	41996	6.671181120661	2
0	42426	6.743094792633	3
0	42453	6.751560792633	2
0	42587	6.760657127581	3
0	42609	6.769123127581	2
0	42701	6.778298128273	3
0	42722	6.786764128273	2
0	42758	6.787283128965	3
0	42776	6.795749128965	2
0	42856	6.804865463913	3
0	42898	6.813331463913	2
0	42995	6.822667798861	3
0	43012	6.831133798861	2
0	43048	6.831892799553	3
0	43066	6.840358799553	2
0	43106	6.840897800245	3
0	43121	6.849363800245	2
0	43157	6.849742800937	3
0	43180	6.858208800937	2
0	43216	6.858827801629	3
0	43235	6.867293801629	2
0	43271	6.867872802321	3
0	43290	6.876338802321	2
0	43393	6.885755137269	3
0	43436	6.894221137269	2
0	43516	6.903137472217	3
0	43564	6.911603472217	2
0	43596	6.911882472909	3
0	43649	6.920348472909	2
0	43752	6.929284807857	3
0	43809	6.937750807857	2
0	43865	6.939060807857	3
0	43912	6.947526807857	2
0	44095	6.975488477061	3
0	44133	6.983954477061	2
0	44200	6.984753477753	3
0	44219	6.993219477753	2
0	44255	6.993718478445	3
0	44288	7.002184478445	2
0	44386	7.011300813393	3
0	44410	7.019766813393	2
0	44526	7.029083481905	3
0	44569	7.037549481905	2
0	44601	7.038048482597	3
0	44646	7.046514482597	2
0	44681	7.047353483289	3
0	44712	7.055819483289	2
0	44748	7.056458483981	3
0	44771	7.064924483981	2
0	44873	7.074100818929	3
0	44901	7.082566818929	2
0	44969	7.083245819621	3
0	45001	7.091711819621	2
0	45097	7.100830155953	3
0	45135	7.109296155953	2
0	45203	7.109835156645	3
0	45231	7.118301156645	2
0	45299	7.118880157337	3
0	45316	7.127346157337	2
0	45352	7.127865158029	3
0	45381	7.136331158029	2
0	45417	7.136910158721	3
0	45440	7.145376158721	2
0	45566	7.163239162181	3
0	45612	7.171705162181	2
0	45669	7.172164162873	3
0	45708	7.180630162873	2
0	45742	7.180909163565	3
0	45787	7.189375163565	2
0	45823	7.189794164257	3
0	45838	7.198260164257	2
0	45910	7.207576499205	3
0	45948	7.216042499205	2
0	46005	7.216581499897	3
0	46030	7.225047499897	2
0	46066	7.225666500589	3
0	46082	7.234132500589	2
0	46118	7.234451501281	3
0	46133	7.242917501281	2
0	46209	7.251832501973	3
0	46247	7.260298501973	2
0	46329	7.269446836921	3
0	46349	7.277912836921	2
0	46385	7.278231837613	3
0	46399	7.286697837613	2
0	46435	7.287096838305	3
0	46458	7.295562838305	2
0	46494	7.296121838997	3
0	46505	7.304587838997	2
0	46541	7.304926839689	3
0	46552	7.313392839689	2
0	46588	7.314131840381	3
0	46607	7.322597840381	2
0	46644	7.323396841073	3
0	46662	7.331862841073	2
0	46698	7.332361841765	3
0	46721	7.340827841765	2
0	46757	7.341486842457	3
0	46768	7.349952842457	2
0	46860	7.359349177405	3
0	46885	7.367815177405	2
0	47011	7.377031512353	3
0	47037	7.385497512353	2
0	47172	7.394713847301	3
0	47213	7.403179847301	2
0	47257	7.403538847993	3
0	47268	7.412004847993	2
0	47304	7.412383848685	3
0	47325	7.420849848685	2
0	47365	7.421168849377	3
0	47380	7.429634849377	2
0	47487	7.439051184325	3
0	47534	7.447517184325	2
0	47578	7.447876185017	3
0	47610	7.456342185017	2
0	47784	7.474626856297	3
0	47827	7.483092856297	2
0	47928	7.492149191245	3
0	47955	7.500615191245	2
0	48023	7.501394191937	3
0	48048	7.509860191937	2
0	48143	7.519256860449	3
0	48168	7.527722860449	2
0	48230	7.528101861141	3
0	48254	7.536567861141	2
0	48290	7.537266861833	3
0	48314	7.545732861833	2
0	48350	7.546091862525	3
0	48373	7.554557862525	2
0	48409	7.554936863217	3
0	48432	7.563402863217	2
0	48468	7.563881863909	3
0	48479	7.572347863909	2
0	48515	7.572746864601	3
0	48530	7.581212864601	2
0	48566	7.581631865293	3
0	48585	7.590097865293	2
0	48621	7.590556865985	3
0	48645	7.599022865985	2
0	48809	7.617187537265	3
0	48848	7.625653537265	2
0	48955	7.634989872213	3
0	48981	7.643455872213	2
0	49059	7.644334872905	3
0	49113	7.652800872905	2
0	49156	7.653299873597	3
0	49205	7.661765873597	2
0	49279	7.670922208545	3
0	49318	7.679388208545	2
0	49350	7.679907209237	3
0	49411	7.688373209237	2
0	49446	7.688752209929	3
0	49465	7.697218209929	2
0	49501	7.697897210621	3
0	49516	7.706363210621	2
0	49552	7.706962211313	3
0	49571	7.715428211313	2
0	49607	7.715807212005	3
0	49630	7.724273212005	2
0	49732	7.733589546953	3
0	49764	7.742055546953	2
0	49856	7.750931881901	3
0	49870	7.759397881901	2
0	49905	7.759676882593	3
0	49920	7.768142882593	2
0	49956	7.768821883285	3
0	49979	7.777287883285	2
0	50015	7.777726883977	3
0	50034	7.786192883977	2
0	50070	7.786771884669	3
0	50086	7.795237884669	2
0	50214	7.812990219617	3
0	50271	7.821456219617	2
0	50289	7.822966219617	3
0	50315	7.831432219617	2
0	50352	7.831771220309	3
0	50361	7.840237220309	2
0	50397	7.840656221001	3
0	50412	7.849122221001	2
0	50448	7.849981221693	3
0	50463	7.858447221693	2
0	50499	7.858786222385	3
0	50510	7.867252222385	2
0	50586	7.876328557333	3
0	50624	7.884794557333	2
0	50656	7.885353558025	3
0	50705	7.893819558025	2
0	50744	7.894478558717	3
0	50763	7.902944558717	2
0	50799	7.903363559409	3
0	50822	7.911829559409	2
0	50858	7.912308560101	3
0	50869	7.920774560101	2
0	50945	7.930150895049	3
0	50979	7.938616895049	2
0	51046	7.939115895741	3
0	51057	7.947581895741	2
0	51093	7.948440896433	3
0	51114	7.956906896433	2
0	51150	7.957545897125	3
0	51165	7.966011897125	2
0	51205	7.966510897817	3
0	51220	7.974976897817	2
0	51256	7.975775898509	3
0	51271	7.984241898509	2
0	51351	7.993178233457	3
0	51397	8.001644233457	2
0	51429	8.002143234149	3
0	51478	8.010609234149	2
0	51517	8.010988234841	3
0	51532	8.019454234841	2
0	51568	8.020273235533	3
0	51587	8.028739235533	2
0	51623	8.029098236225	3
0	51650	8.037564236225	2
0	51686	8.038403236917	3
0	51697	8.046869236917	2
0	51734	8.047768237609	3
0	51744	8.056234237609	2
0	51780	8.056553238301	3
0	51803	8.065019238301	2
0	51839	8.065378238993	3
0	51862	8.073844238993	2
0	51898	8.074663239685	3
0	51917	8.083129239685	2
0	51954	8.083968240377	3
0	51968	8.092434240377	2
0	52004	8.092993241069	3
0	52031	8.101459241069	2
0	52067	8.101798241761	3
0	52082	8.110264241761	2
0	52118	8.111143242453	3
0	52145	8.119609242453	2
0	52182	8.120408243145	3
0	52196	8.128874243145	2
0	52232	8.129293243837	3
0	52251	8.137759243837	2
0	52291	8.138118244529	3
0	52306	8.146584244529	2
0	52342	8.147083245221	3
0	52353	8.155549245221	2
0	52393	8.156208245913	3
0	52416	8.164674245913	2
0	52452	8.165353246605	3
0	52475	8.173819246605	2
0	52511	8.174458247297	3
0	52526	8.182924247297	2
0	52562	8.183223247989	3
0	52589	8.191689247989	2
0	52625	8.192468248681	3
0	52636	8.200934248681	2
0	52672	8.201593249373	3
0	52687	8.210059249373	2
0	52723	8.210658250065	3
0	52734	8.219124250065	2
0	52770	8.219443250757	3
0	52781	8.227909250757	2
0	52817	8.228468251449	3
0	52832	8.236934251449	2
0	52868	8.237493252141	3
0	52887	8.245959252141	2
0	52923	8.246258252833	3
0	52934	8.254724252833	2
0	52970	8.255083253525	3
0	52989	8.263549253525	2
0	53024	8.263828254217	3
0	53052	8.272294254217	2
0	53088	8.272593254909	3
0	53103	8.281059254909	2
0	53139	8.281398255601	3
0	53166	8.289864255601	2
0	53202	8.290623256293	3
0	53213	8.299089256293	2
0	53250	8.299988256985	3
0	53272	8.308454256985	2
0	53308	8.309053257677	3
0	53323	8.317519257677	2
0	53359	8.318298258369	3
0	53378	8.326764258369	2
0	53414	8.327363259061	3
0	53437	8.335829259061	2
0	53473	8.336528259753	3
0	53492	8.344994259753	2
0	53528	8.345393260445	3
0	53543	8.353859260445	2
0	53579	8.354518261137	3
0	53594	8.362984261137	2
0	53630	8.363723261829	3
0	53641	8.372189261829	2
0	53676	8.372468262521	3
0	53692	8.380934262521	2
0	53728	8.381573263213	3
0	53739	8.390039263213	2
0	53774	8.390318263905	3
0	53802	8.398784263905	2
0	53838	8.399323264597	3
0	53861	8.407789264597	2
0	53941	8.416985599545	3
0	53975	8.425451599545	2
0	54069	8.434766600237	3
0	54092	8.443232600237	2
0	54127	8.443811600929	3
0	54145	8.452277600929	2
0	54240	8.461492601621	3
0	54278	8.469958601621	2
0	54325	8.470568601621	3
0	54344	8.479034601621	2
0	54379	8.479613602313	3
0	54391	8.488079602313	2
0	54426	8.488558603005	3
0	54461	8.497024603005	2
0	54532	8.505979603697	3
0	54570	8.514445603697	2
0	54647	8.523462272209	3
0	54669	8.531928272209	2
0	54701	8.532547272901	3
0	54748	8.541013272901	2
0	54783	8.541452273593	3
0	54798	8.549918273593	2
0	54833	8.550777274285	3
0	54848	8.559243274285	2
0	54883	8.559742274977	3
0	54898	8.568208274977	2
0	54933	8.568847275669	3
0	54952	8.577313275669	2
0	54987	8.577712276361	3
0	55002	8.586178276361	2
0	55037	8.586817277053	3
0	55052	8.595283277053	2
0	55091	8.595982277745	3
0	55110	8.604448277745	2
0	55185	8.613443278437	3
0	55223	8.621909278437	2
0	55270	8.623079278437	3
0	55289	8.631545278437	2
0	55325	8.632224279129	3
0	55348	8.640690279129	2
0	55383	8.641349279821	3
0	55398	8.649815279821	2
0	55433	8.650214280513	3
0	55452	8.658680280513	2
0	55487	8.659499281205	3
0	55502	8.667965281205	2
0	55537	8.668304281897	3
0	55556	8.676770281897	2
0	55591	8.677669282589	3
0	55602	8.686135282589	2
0	55638	8.686914283281	3
0	55656	8.695380283281	2
0	55691	8.696039283973	3
0	55714	8.704505283973	2
0	55749	8.704944284665	3
0	55764	8.713410284665	2
0	55799	8.714169285357	3
0	55814	8.722635285357	2
0	55849	8.723214286049	3
0	55860	8.731680286049	2
0	55895	8.732059286741	3
0	55910	8.740525286741	2
0	55945	8.741244287433	3
0	55964	8.749710287433	2
0	55999	8.750349288125	3
0	56010	8.758815288125	2
0	56045	8.759154288817	3
0	56061	8.767620288817	2
0	56100	8.768199289509	3
0	56111	8.776665289509	2
0	56146	8.777484290201	3
0	56157	8.785950290201	2
0	56193	8.786669290893	3
0	56215	8.795135290893	2
0	56250	8.795634291585	3
0	56261	8.804100291585	2
0	56296	8.804979292277	3
0	56315	8.813445292277	2
0	56350	8.813744292969	3
0	56373	8.822210292969	2
0	56448	8.831386627917	3
0	56486	8.839852627917	2
0	56517	8.840131628609	3
0	56566	8.848597628609	2
0	56650	8.858012629301	3
0	56670	8.866478629301	2
0	56784	8.875735297813	3
0	56823	8.884201297813	2
0	56912	8.893977966325	3
0	56937	8.902443966325	2
0	57044	8.912340634837	3
0	57100	8.920806634837	2
0	57114	8.924296634837	3
0	57173	8.932762634837	2
0	57266	8.951195973245	3
0	57318	8.959661973245	2
0	57980	9.064002310961	3
0	58029	9.072468310961	2
0	58103	9.082335311653	3
0	58159	9.090801311653	2
0	58294	9.110474980857	3
0	58353	9.118940980857	2
0	58429	9.128069315805	3
0	58448	9.136535315805	2
0	58571	9.154296985009	3
0	58605	9.162762985009	2
0	58666	9.164312985009	3
0	58714	9.172778985009	2
0	58793	9.183285985701	3
0	58838	9.191751985701	2
0	58919	9.204218986393	3
0	58964	9.212684986393	2
0	59104	9.230829321341	3
0	59121	9.239295321341	2
0	59156	9.239774322033	3
0	59173	9.248240322033	2
0	59208	9.248639322725	3
0	59219	9.257105322725	2
0	59254	9.257464323417	3
0	59274	9.265930323417	2
0	59351	9.275005324109	3
0	59391	9.283471324109	2
0	59491	9.293167992621	3
0	59512	9.301633992621	2
0	59580	9.302332993313	3
0	59609	9.310798993313	2
0	59641	9.311117994005	3
0	59690	9.319583994005	2
0	59775	9.328958994697	3
0	59801	9.337424994697	2
0	59893	9.346521663209	3
0	59924	9.354987663209	2
0	59956	9.355506663901	3
0	60002	9.363972663901	2
0	60135	9.381774333105	3
0	60172	9.390240333105	2
0	60219	9.390710333105	3
0	60243	9.399176333105	2
0	60309	9.400015333797	3
0	60327	9.408481333797	2
0	60405	9.417776334489	3
0	60448	9.426242334489	2
0	60485	9.426672334489	3
0	60509	9.435138334489	2
0	60544	9.435697335181	3
0	60556	9.444163335181	2
0	60627	9.453158335873	3
0	60666	9.461624335873	2
0	60713	9.462654335873	3
0	60724	9.471120335873	2
0	60759	9.471459336565	3
0	60777	9.479925336565	2
0	60812	9.480344337257	3
0	60823	9.488810337257	2
0	60858	9.489289337949	3
0	60875	9.497755337949	2
0	60910	9.498294338641	3
0	60921	9.506760338641	2
0	60956	9.507099339333	3
0	60970	9.515565339333	2
0	61008	9.515944340025	3
0	61025	9.524410340025	2
0	61060	9.524749340717	3
0	61074	9.533215340717	2
0	61112	9.534094341409	3
0	61126	9.542560341409	2
0	61161	9.543039342101	3
0	61172	9.551505342101	2
0	61207	9.552044342793	3
0	61227	9.560510342793	2
0	61265	9.560949343485	3
0	61279	9.569415343485	2
0	61314	9.569814344177	3
0	61325	9.578280344177	2
0	61452	9.596163347637	3
0	61489	9.604629347637	2
0	61565	9.605448348329	3
0	61610	9.613914348329	2
0	61644	9.614373349021	3
0	61660	9.622839349021	2
0	61797	9.640502352481	3
0	61840	9.648968352481	2
0	61871	9.649267353173	3
0	61932	9.657733353173	2
0	62026	9.666708353865	3
0	62044	9.675174353865	2
0	62079	9.675913354557	3
0	62095	9.684379354557	2
0	62130	9.684818355249	3
0	62141	9.693284355249	2
0	62227	9.702440690197	3
0	62260	9.710906690197	2
0	62317	9.711685690889	3
0	62347	9.720151690889	2
0	62431	9.729568025837	3
0	62461	9.738034025837	2
0	62494	9.738433026529	3
0	62544	9.746899026529	2
0	62579	9.747258027221	3
0	62593	9.755724027221	2
0	62667	9.764920362169	3
0	62713	9.773386362169	2
0	62769	9.773745362861	3
0	62790	9.782211362861	2
0	62825	9.782610363553	3
0	62841	9.791076363553	2
0	62915	9.800331364245	3
0	62949	9.808797364245	2
0	63085	9.827141699193	3
0	63132	9.835607699193	2
0	63225	9.844984034141	3
0	63270	9.853450034141	2
0	63349	9.862686369089	3
0	63385	9.871152369089	2
0	63451	9.871991369781	3
0	63462	9.880457369781	2
0	63563	9.889833704729	3
0	63584	9.898299704729	2
0	63675	9.907436373241	3
0	63691	9.915902373241	2
0	63726	9.916801373933	3
0	63739	9.925267373933	2
0	63814	9.934323708881	3
0	63852	9.942789708881	2
0	63918	9.943688709573	3
0	63935	9.952154709573	2
0	63973	9.952533710265	3
0	63988	9.960999710265	2
0	64062	9.970236045213	3
0	64108	9.978702045213	2
0	64139	9.978981045905	3
0	64190	9.987447045905	2
0	64224	9.988166046597	3
0	64238	9.996632046597	2
0	64273	9.997091047289	3
0	64298	10.005557047289	2
0	64333	10.005936047981	3
0	64347	10.014402047981	2
0	64382	10.014821048673	3
0	64402	10.023287048673	2
0	64437	10.024026049365	3
0	64460	10.032492049365	2
0	64495	10.033191050057	3
0	64506	10.041657050057	2
0	64542	10.042556050749	3
0	64561	10.051022050749	2
0	64597	10.051801051441	3
0	64610	10.060267051441	2
0	64645	10.060866052133	3
0	64671	10.069332052133	2
0	64706	10.070091052825	3
0	64717	10.078557052825	2
0	64755	10.079076053517	3
0	64766	10.087542053517	2
0	64843	10.096878388465	3
0	64880	10.105344388465	2
0	64946	10.106023389157	3
0	64963	10.114489389157	2
0	64998	10.115308389849	3
0	65010	10.123774389849	2
0	65045	10.124153390541	3
0	65062	10.132619390541	2
0	65097	10.133218391233	3
0	65111	10.141684391233	2
0	65146	10.142563391925	3
0	65160	10.151029391925	2
0	65195	10.151468392617	3
0	65216	10.159934392617	2
0	65251	10.160253393309	3
0	65268	10.168719393309	2
0	65303	10.169358394001	3
0	65317	10.177824394001	2
0	65355	10.178303394693	3
0	65369	10.186769394693	2
0	65404	10.187468395385	3
0	65415	10.195934395385	2
0	65450	10.196613396077	3
0	65464	10.205079396077	2
0	65502	10.205898396769	3
0	65516	10.214364396769	2
0	65554	10.215063397461	3
0	65571	10.223529397461	2
0	65606	10.224008398153	3
0	65620	10.232474398153	2
0	65655	10.233073398845	3
0	65667	10.241539398845	2
0	65701	10.241818399537	3
0	65722	10.250284399537	2
0	65760	10.251143400229	3
0	65780	10.259609400229	2
0	65818	10.260268400921	3
0	65832	10.268734400921	2
0	65867	10.269393401613	3
0	65881	10.277859401613	2
0	65916	10.278178402305	3
0	65930	10.286644402305	2
0	65965	10.287143402997	3
0	65976	10.295609402997	2
0	66011	10.295948403689	3
0	66022	10.304414403689	2
0	66057	10.304873404381	3
0	66068	10.313339404381	2
0	66103	10.314118405073	3
0	66117	10.322584405073	2
0	66152	10.323303405765	3
0	66169	10.331769405765	2
0	66204	10.332128406457	3
0	66221	10.340594406457	2
0	66256	10.341173407149	3
0	66273	10.349639407149	2
0	66308	10.350118407841	3
0	66322	10.358584407841	2
0	66357	10.359003408533	3
0	66368	10.367469408533	2
0	66403	10.367788409225	3
0	66423	10.376254409225	2
0	66500	10.385210744173	3
0	66537	10.393676744173	2
0	66593	10.394255744865	3
0	66620	10.402721744865	2
0	66655	10.403600745557	3
0	66667	10.412066745557	2
0	66744	10.421081746249	3
0	66787	10.429547746249	2
0	66837	10.430317746249	3
0	66857	10.438783746249	2
0	66893	10.439642746941	3
0	66916	10.448108746941	2
0	66952	10.448907747633	3
0	66965	10.457373747633	2
0	67000	10.457792748325	3
0	67014	10.466258748325	2
0	67049	10.466957749017	3
0	67063	10.475423749017	2
0	67098	10.475862749709	3
0	67112	10.484328749709	2
0	67147	10.485027750401	3
0	67158	10.493493750401	2
0	67196	10.494032751093	3
0	67210	10.502498751093	2
0	67244	10.502777751785	3
0	67262	10.511243751785	2
0	67297	10.512102752477	3
0	67311	10.520568752477	2
0	67347	10.521467753169	3
0	67363	10.529933753169	2
0	67398	10.530372753861	3
0	67415	10.538838753861	2
0	67453	10.539277754553	3
0	67464	10.547743754553	2
0	67499	10.548502755245	3
0	67516	10.556968755245	2
0	67552	10.557847755937	3
0	67571	10.566313755937	2
0	67606	10.566692756629	3
0	67618	10.575158756629	2
0	67655	10.575437757321	3
0	67674	10.583903757321	2
0	67709	10.584802758013	3
0	67723	10.593268758013	2
0	67758	10.593607758705	3
0	67772	10.602073758705	2
0	67807	10.602492759397	3
0	67830	10.610958759397	2
0	67865	10.611457760089	3
0	67882	10.619923760089	2
0	67917	10.620442760781	3
0	67931	10.628908760781	2
0	67966	10.629547761473	3
0	67981	10.638013761473	2
0	68016	10.638732762165	3
0	68027	10.647198762165	2
0	68062	10.647777762857	3
0	68079	10.656243762857	2
0	68114	10.656562763549	3
0	68134	10.665028763549	2
0	68169	10.665367764241	3
0	68183	10.673833764241	2
0	68218	10.674592764933	3
0	68229	10.683058764933	2
0	68264	10.683377765625	3
0	68281	10.691843765625	2
0	68316	10.692302766317	3
0	68330	10.700768766317	2
0	68365	10.701147767009	3
0	68382	10.709613767009	2
0	68417	10.710172767701	3
0	68431	10.718638767701	2
0	68466	10.719457768393	3
0	68486	10.727923768393	2
0	68521	10.728502769085	3
0	68538	10.736968769085	2
0	68573	10.737867769777	3
0	68590	10.746333769777	2
0	68627	10.747212770469	3
0	68642	10.755678770469	2
0	68678	10.756437771161	3
0	68697	10.764903771161	2
0	68732	10.765262771853	3
0	68746	10.773728771853	2
0	68781	10.774127772545	3
0	68807	10.782593772545	2
0	68842	10.783312773237	3
0	68856	10.791778773237	2
0	68930	10.801153773929	3
0	68968	10.809619773929	2
0	69015	10.810309773929	3
0	69029	10.818775773929	2
0	69064	10.819354774621	3
0	69082	10.827820774621	2
0	69117	10.828179775313	3
0	69131	10.836645775313	2
0	69166	10.837264776005	3
0	69180	10.845730776005	2
0	69215	10.846589776697	3
0	69232	10.855055776697	2
0	69267	10.855534777389	3
0	69287	10.864000777389	2
0	69322	10.864479778081	3
0	69333	10.872945778081	2
0	69368	10.873464778773	3
0	69379	10.881930778773	2
0	69414	10.882409779465	3
0	69428	10.890875779465	2
0	69463	10.891314780157	3
0	69486	10.899780780157	2
0	69598	10.909178782925	3
0	69642	10.917644782925	2
0	69694	10.918363783617	3
0	69739	10.926829783617	2
0	69825	10.936186118565	3
0	69855	10.944652118565	2
0	69961	10.953868787077	3
0	69999	10.962334787077	2
0	70055	10.962893787769	3
0	70082	10.971359787769	2
0	70180	10.980616122717	3
0	70221	10.989082122717	2
0	70315	10.998318457665	3
0	70346	11.006784457665	2
0	70439	11.016121126177	3
0	70452	11.024587126177	2
0	70487	11.025046126869	3
0	70497	11.033512126869	2
0	70633	11.051255130329	3
0	70673	11.059721130329	2
0	70729	11.060220131021	3
0	70760	11.068686131021	2
0	70827	11.069405131713	3
0	70839	11.077871131713	2
0	70880	11.078310132405	3
0	70901	11.086776132405	2
0	71072	11.105300803685	3
0	71113	11.113766803685	2
0	71157	11.114065804377	3
0	71177	11.122531804377	2
0	71245	11.122970805069	3
0	71273	11.131436805069	2
0	71329	11.131955805761	3
0	71352	11.140421805761	2
0	71387	11.140880806453	3
0	71399	11.149346806453	2
0	71502	11.158763141401	3
0	71547	11.167229141401	2
0	71581	11.167668142093	3
0	71604	11.176134142093	2
0	71781	11.194518810605	3
0	71801	11.202984810605	2
0	71871	11.203483811297	3
0	71885	11.211949811297	2
0	71920	11.212268811989	3
0	71933	11.220734811989	2
0	72057	11.238527146937	3
0	72102	11.246993146937	2
0	72319	11.282670816141	3
0	72362	11.291136816141	2
0	72397	11.291855816833	3
0	72411	11.300321816833	2
0	72491	11.309376817525	3
0	72528	11.317842817525	2
0	72605	11.327151152473	3
0	72619	11.335617152473	2
0	72709	11.344812153165	3
0	72732	11.353278153165	2
0	72792	11.353897153857	3
0	72818	11.362363153857	2
0	72853	11.362762154549	3
0	72871	11.371228154549	2
0	72906	11.371607155241	3
0	72917	11.380073155241	2
0	72954	11.380432155933	3
0	72977	11.388898155933	2
0	73031	11.389388155933	3
0	73072	11.397854155933	2
0	73322	11.434581159393	3
0	73359	11.443047159393	2
0	73547	11.464970162853	3
0	73592	11.473436162853	2
0	73667	11.485683163545	3
0	73712	11.494149163545	2
0	74097	11.554149504029	3
0	74163	11.562615504029	2
0	74784	11.652951844513	3
0	74819	11.661417844513	2
0	75184	11.713750184997	3
0	75238	11.722216184997	2
0	75289	11.731163185689	3
0	75328	11.739629185689	2
0	75346	11.740299185689	3
0	75385	11.748765185689	2
0	75420	11.749364186381	3
0	75437	11.757830186381	2
0	75471	11.758109187073	3
0	75483	11.766575187073	2
0	75518	11.767154187765	3
0	75532	11.775620187765	2
0	75609	11.784615188457	3
0	75646	11.793081188457	2
0	75693	11.794171188457	3
0	75704	11.802637188457	2
0	75779	11.811772189149	3
0	75816	11.820238189149	2
0	75863	11.821568189149	3
0	75883	11.830034189149	2
0	75921	11.830813189841	3
0	75933	11.839279189841	2
0	75970	11.839638190533	3
0	75999	11.848104190533	2
0	76053	11.849234190533	3
0	76107	11.857700190533	2
0	76181	11.868427191225	3
0	76232	11.876893191225	2
0	76521	11.923406863197	3
0	76547	11.931872863197	2
0	76670	11.941269531709	3
0	76694	11.949735531709	2
0	76743	11.950094532401	3
0	76789	11.958560532401	2
0	76821	11.959119533093	3
0	76884	11.967585533093	2
0	76916	11.968364533785	3
0	76960	11.976830533785	2
0	77034	11.986225534477	3
0	77080	11.994691534477	2
0	77092	11.995301534477	3
0	77148	12.003767534477	2
0	77265	12.021821203681	3
0	77285	12.030287203681	2
0	77344	12.030646204373	3
0	77382	12.039112204373	2
0	77417	12.039811205065	3
0	77476	12.048277205065	2
0	77508	12.048616205757	3
0	77561	12.057082205757	2
0	77649	12.066377206449	3
0	77684	12.074843206449	2
0	77786	12.084199874961	3
0	77821	12.092665874961	2
0	77868	12.093675874961	3
0	77891	12.102141874961	2
0	77929	12.102560875653	3
0	77947	12.111026875653	2
0	78041	12.120301876345	3
0	78070	12.128767876345	2
0	78175	12.137964544857	3
0	78216	12.146430544857	2
0	78331	12.156387213369	3
0	78380	12.164853213369	2
0	78563	12.191993551085	3
0	78612	12.200459551085	2
0	78765	12.219363886033	3
0	78827	12.227829886033	2
0	78847	12.233779886033	3
0	78895	12.242245886033	2
0	79727	12.379876895029	3
0	79775	12.388342895029	2
0	79847	12.397639229977	3
0	79881	12.406105229977	2
0	79977	12.415501898489	3
0	79990	12.423967898489	2
0	80063	12.432884233437	3
0	80097	12.441350233437	2
0	80128	12.441929234129	3
0	80179	12.450395234129	2
0	80213	12.451054234821	3
0	80224	12.459520234821	2
0	80259	12.460239235513	3
0	80270	12.468705235513	2
0	80305	12.469464236205	3
0	80319	12.477930236205	2
0	80354	12.478469236897	3
0	80365	12.486935236897	2
0	80400	12.487254237589	3
0	80414	12.495720237589	2
0	80449	12.496019238281	3
0	80460	12.504485238281	2
0	80588	12.522317573229	3
0	80640	12.530783573229	2
0	80760	12.548726576689	3
0	80797	12.557192576689	2
0	80828	12.557471577381	3
0	80889	12.565937577381	2
0	80955	12.566716578073	3
0	80966	12.575182578073	2
0	81002	12.576061578765	3
0	81019	12.584527578765	2
0	81166	12.602339913713	3
0	81191	12.610805913713	2
0	81277	12.619982248661	3
0	81309	12.628448248661	2
0	81424	12.637764583609	3
0	81466	12.646230583609	2
0	81497	12.646509584301	3
0	81542	12.654975584301	2
0	81575	12.655254584993	3
0	81599	12.663720584993	2
0	81634	12.664259585685	3
0	81648	12.672725585685	2
0	81683	12.673424586377	3
0	81700	12.681890586377	2
0	81735	12.682409587069	3
0	81758	12.690875587069	2
0	81793	12.691254587761	3
0	81807	12.699720587761	2
0	81881	12.708776922709	3
0	81918	12.717242922709	2
0	81984	12.718121923401	3
0	82010	12.726587923401	2
0	82049	12.727286924093	3
0	82073	12.735752924093	2
0	82108	12.736131924785	3
0	82122	12.744597924785	2
0	82157	12.745076925477	3
0	82180	12.753542925477	2
0	82215	12.753901926169	3
0	82241	12.762367926169	2
0	82297	12.762977926169	3
0	82338	12.771443926169	2
0	82434	12.780740261117	3
0	82459	12.789206261117	2
0	82492	12.789485261809	3
0	82542	12.797951261809	2
0	82580	12.798550262501	3
0	82594	12.807016262501	2
0	82631	12.807295263193	3
0	82643	12.815761263193	2
0	82717	12.824697598141	3
0	82754	12.833163598141	2
0	82785	12.833482598833	3
0	82839	12.841948598833	2
0	82873	12.842287599525	3
0	82889	12.850753599525	2
0	82924	12.851452600217	3
0	82941	12.859918600217	2
0	83032	12.869154935165	3
0	83058	12.877620935165	2
0	83091	12.878039935857	3
0	83141	12.886505935857	2
0	83241	12.895822270805	3
0	83264	12.904288270805	2
0	83331	12.905087271497	3
0	83348	12.913553271497	2
0	83482	12.931456274957	3
0	83522	12.939922274957	2
0	83616	12.949278943469	3
0	83644	12.957744943469	2
0	83711	12.958063944161	3
0	83730	12.966529944161	2
0	83765	12.967088944853	3
0	83784	12.975554944853	2
0	83819	12.976453945545	3
0	83836	12.984919945545	2
0	83874	12.985238946237	3
0	83891	12.993704946237	2
0	83929	12.994063946929	3
0	83963	13.002529946929	2
0	83998	13.003068947621	3
0	84012	13.011534947621	2
0	84047	13.011993948313	3
0	84064	13.020459948313	2
0	84099	13.021278949005	3
0	84110	13.029744949005	2
0	84195	13.039081283953	3
0	84215	13.047547283953	2
0	84282	13.048046284645	3
0	84299	13.056512284645	2
0	84392	13.065788619593	3
0	84418	13.074254619593	2
0	84509	13.083350954541	3
0	84526	13.091816954541	2
0	84561	13.092695955233	3
0	84571	13.101161955233	2
0	84697	13.118994290181	3
0	84741	13.127460290181	2
0	84815	13.136876625129	3
0	84849	13.145342625129	2
0	84915	13.146141625821	3
0	84935	13.154607625821	2
0	84970	13.155226626513	3
0	84985	13.163692626513	2
0	85020	13.164071627205	3
0	85034	13.172537627205	2
0	85069	13.172936627897	3
0	85086	13.181402627897	2
0	85181	13.190778962845	3
0	85211	13.199244962845	2
0	85268	13.199563963537	3
0	85289	13.208029963537	2
0	85324	13.208328964229	3
0	85337	13.216794964229	2
0	85461	13.234637967689	3
0	85501	13.243103967689	2
0	85557	13.243702968381	3
0	85594	13.252168968381	2
0	85661	13.252767969073	3
0	85676	13.261233969073	2
0	85781	13.270490304021	3
0	85807	13.278956304021	2
0	85913	13.288272972533	3
0	85951	13.296738972533	2
0	86017	13.297637973225	3
0	86028	13.306103973225	2
0	86062	13.306382973917	3
0	86078	13.314848973917	2
0	86116	13.315407974609	3
0	86130	13.323873974609	2
0	86168	13.324472975301	3
0	86188	13.332938975301	2
0	86285	13.342275310249	3
0	86320	13.350741310249	2
0	86405	13.359797645197	3
0	86444	13.368263645197	2
0	86510	13.368982645889	3
0	86530	13.377448645889	2
0	86607	13.386664980837	3
0	86641	13.395130980837	2
0	86707	13.395749981529	3
0	86721	13.404215981529	2
0	86756	13.404974982221	3
0	86778	13.413440982221	2
0	86813	13.414179982913	3
0	86833	13.422645982913	2
0	86868	13.423044983605	3
0	86879	13.431510983605	2
0	86914	13.432269984297	3
0	86934	13.440735984297	2
0	86969	13.441174984989	3
0	86983	13.449640984989	2
0	87066	13.459057319937	3
0	87093	13.467523319937	2
0	87150	13.467842320629	3
0	87177	13.476308320629	2
0	87212	13.476727321321	3
0	87225	13.485193321321	2
0	87319	13.494609656269	3
0	87357	13.503075656269	2
0	87498	13.512351991217	3
0	87526	13.520817991217	2
0	87678	13.538740994677	3
0	87732	13.547206994677	2
0	87809	13.556381995369	3
0	87843	13.564847995369	2
0	87971	13.583432330317	3
0	87997	13.591898330317	2
0	88053	13.592497331009	3
0	88074	13.600963331009	2
0	88109	13.601342331701	3
0	88127	13.609808331701	2
0	88162	13.610247332393	3
0	88173	13.618713332393	2
0	88247	13.627648333085	3
0	88284	13.636114333085	2
0	88358	13.645562668033	3
0	88369	13.654028668033	2
0	88404	13.654687668725	3
0	88417	13.663153668725	2
0	88514	13.672568669417	3
0	88555	13.681034669417	2
0	88642	13.690421670109	3
0	88687	13.698887670109	2
0	88825	13.717761339313	3
0	88882	13.726227339313	2
0	89067	13.753578342773	3
0	89105	13.762044342773	2
0	89249	13.788428677721	3
0	89299	13.796894677721	2
0	89364	13.806221678413	3
0	89393	13.814687678413	2
0	89500	13.824062679105	3
0	89551	13.832528679105	2
0	89563	13.832978679105	3
0	89621	13.841444679105	2
0	89740	13.851931682565	3
0	89788	13.860397682565	2
0	89845	13.869244683257	3
0	89879	13.877710683257	2
0	89926	13.878640683257	3
0	89943	13.887106683257	2
0	90033	13.896521683949	3
0	90057	13.904987683949	2
0	90134	13.905646684641	3
0	90178	13.914112684641	2
0	90266	13.924139685333	3
0	90322	13.932605685333	2
0	90454	13.951539354537	3
0	90513	13.960005354537	2
0	90527	13.962675354537	3
0	90572	13.971141354537	2
0	90632	13.980268355229	3
0	90661	13.988734355229	2
0	90800	14.006426690177	3
0	90836	14.014892690177	2
0	90854	14.015242690177	3
0	90896	14.023708690177	2
0	90933	14.024047690869	3
0	90965	14.032513690869	2
0	91020	14.033803690869	3
0	91064	14.042269690869	2
0	91132	14.051576691561	3
0	91157	14.060042691561	2
0	91223	14.060521692253	3
0	91248	14.068987692253	2
0	91368	14.078382692945	3
0	91396	14.086848692945	2
0	91428	14.087187693637	3
0	91482	14.095653693637	2
0	91548	14.096552694329	3
0	91565	14.105018694329	2
0	91660	14.114293695021	3
0	91683	14.122759695021	2
0	91751	14.123278695713	3
0	91774	14.131744695713	2
0	91870	14.141092363533	3
0	91891	14.149558363533	2
0	91923	14.149877364225	3
0	91966	14.158343364225	2
0	92001	14.159022364917	3
0	92018	14.167488364917	2
0	92052	14.167767365609	3
0	92070	14.176233365609	2
0	92105	14.176652366301	3
0	92125	14.185118366301	2
0	92213	14.194493366993	3
0	92236	14.202959366993	2
0	92357	14.212234367685	3
0	92388	14.220700367685	2
0	92420	14.221019368377	3
0	92483	14.229485368377	2
0	92575	14.238821703325	3
0	92593	14.247287703325	2
0	92675	14.256542704017	3
0	92717	14.265008704017	2
0	92773	14.265687704709	3
0	92797	14.274153704709	2
0	92832	14.274492705401	3
0	92850	14.282958705401	2
0	92885	14.283597706093	3
0	92902	14.292063706093	2
0	92973	14.301118706785	3
0	93028	14.309584706785	2
0	93153	14.327668041041	3
0	93198	14.336134041041	2
0	93428	14.372931713013	3
0	93462	14.381397713013	2
0	93651	14.402980716473	3
0	93706	14.411446716473	2
0	93971	14.452364385677	3
0	94022	14.460830385677	2
0	94295	14.505233058341	3
0	94318	14.513699058341	2
0	94386	14.514418059033	3
0	94408	14.522884059033	2
0	94440	14.523183059725	3
0	94489	14.531649059725	2
0	94524	14.531968060417	3
0	94538	14.540434060417	2
0	94573	14.540733061109	3
0	94584	14.549199061109	2
0	94675	14.558594061801	3
0	94698	14.567060061801	2
0	94796	14.576036730313	3
0	94827	14.584502730313	2
0	94859	14.585341731005	3
0	94911	14.593807731005	2
0	94999	14.602824065953	3
0	95032	14.611290065953	2
0	95110	14.620706734465	3
0	95129	14.629172734465	2
0	95214	14.638589069413	3
0	95238	14.647055069413	2
0	95295	14.647434070105	3
0	95316	14.655900070105	2
0	95350	14.656179070797	3
0	95367	14.664645070797	2
0	95509	14.682588074257	3
0	95533	14.691054074257	2
0	95612	14.691793074949	3
0	95662	14.700259074949	2
0	95839	14.726650078409	3
0	95897	14.735116078409	2
0	95928	14.735455079101	3
0	95982	14.743921079101	2
0	96016	14.744280079793	3
0	96030	14.752746079793	2
0	96064	14.753025080485	3
0	96082	14.761491080485	2
0	96156	14.770427415433	3
0	96196	14.778893415433	2
0	96227	14.779212416125	3
0	96272	14.787678416125	2
0	96306	14.788197416817	3
0	96323	14.796663416817	2
0	96358	14.797362417509	3
0	96375	14.805828417509	2
0	96409	14.806107418201	3
0	96421	14.814573418201	2
0	96512	14.823949753149	3
0	96538	14.832415753149	2
0	96658	14.841732088097	3
0	96683	14.850198088097	2
0	96807	14.859434423045	3
0	96842	14.867900423045	2
0	96875	14.868319423737	3
0	96928	14.876785423737	2
0	96963	14.877384424429	3
0	96974	14.885850424429	2
0	97068	14.895106759377	3
0	97103	14.903572759377	2
0	97199	14.912689094325	3
0	97221	14.921155094325	2
0	97327	14.930451762837	3
0	97362	14.938917762837	2
0	97396	14.939436763529	3
0	97444	14.947902763529	2
0	97478	14.948581764221	3
0	97489	14.957047764221	2
0	97578	14.966462764913	3
0	97608	14.974928764913	2
0	97723	14.984725433425	3
0	97750	14.993191433425	2
0	97881	15.002568101937	3
0	97906	15.011034101937	2
0	98021	15.019989102629	3
0	98063	15.028455102629	2
0	98238	15.046559437577	3
0	98265	15.055025437577	2
0	98362	15.064140438269	3
0	98390	15.072606438269	2
0	98422	15.073205438961	3
0	98468	15.081671438961	2
0	98503	15.081970439653	3
0	98514	15.090436439653	2
0	98549	15.090995440345	3
0	98563	15.099461440345	2
0	98601	15.099980441037	3
0	98612	15.108446441037	2
0	98707	15.117861441729	3
0	98731	15.126327441729	2
0	98787	15.126986442421	3
0	98814	15.135452442421	2
0	98849	15.135811443113	3
0	98861	15.144277443113	2
0	98938	15.153432443805	3
0	98972	15.161898443805	2
0	99073	15.171715112317	3
0	99095	15.180181112317	2
0	99225	15.198053447265	3
[...]
100	93295	14.354888542771	1049
100	93347	14.363915211283	1049
100	93409	14.372841879795	1049
100	93475	14.381607214051	1049
100	93552	14.390813548999	1049
100	93603	14.399810883255	1049
100	93663	14.408676217511	1049
100	93736	14.417902552459	1049
100	93802	14.430441218203	1049
100	93860	14.439426552459	1049
100	93928	14.449434552459	1049
100	93986	14.458179886715	1049
100	94050	14.469587553151	1049
100	94108	14.478634221663	1049
100	94164	14.487439555919	1049
100	94229	14.496225890867	1049
100	94285	14.504863225123	1049
100	94642	14.558084228583	1049
100	94788	14.575946897095	1049
100	95036	14.611290232735	1049
100	95665	14.700259241731	1049
100	95831	14.726300245191	1049
100	97547	14.966212931695	1049
100	97634	14.975558265951	1049
100	97690	14.984295600207	1049
100	97847	15.002298268719	1049
100	98002	15.019899269411	1049
100	98076	15.028684603667	1049
100	98137	15.037510938615	1049
100	98205	15.046269604359	1049
100	98352	15.063790605051	1049
100	98676	15.117611608511	1049
100	98919	15.153322610587	1049
100	98990	15.162567944843	1049
100	99042	15.171445279099	1049
100	99179	15.188966279791	1049
100	99237	15.198123614047	1049
100	99478	15.242479616815	1049
100	99555	15.251844951071	1049
100	99660	15.269556617507	1049
100	99740	15.278741951763	1049
100	99964	15.322281954531	1049
100	100104	15.340222955223	1049
100	100443	15.385338957991	1049
100	100683	15.420769960067	1049
100	100742	15.429555294323	1049
100	100806	15.438482960759	1049
100	100860	15.447409629271	1049
100	100922	15.456274963527	1049
100	100998	15.465081298475	1049
100	101064	15.474778629963	1049
100	101126	15.483685298475	1049
100	101182	15.492631966987	1049
100	101695	15.554777971139	1049
100	101757	15.563624639651	1049
100	101828	15.572609973907	1049
100	101881	15.581467308163	1049
100	102120	15.608336311623	1049
100	102190	15.617101645879	1049
100	102247	15.625818980135	1049
100	102310	15.634664314391	1049
100	102371	15.643291980827	1049
100	102405	15.652447980827	1049
100	102469	15.661333315083	1049
100	102539	15.670419650031	1049
100	102603	15.679918315775	1049
100	102662	15.688964984287	1049
100	102724	15.697791652799	1049
100	102783	15.706576987055	1049
100	102844	15.715463322003	1049
100	102903	15.724220656259	1049
100	102974	15.733285990515	1049
100	103042	15.742212325463	1049
100	103115	15.755890991207	1049
100	103170	15.765037659719	1049
100	103235	15.773802993975	1049
100	103293	15.782989328923	1049
100	103345	15.791966663179	1049
100	103407	15.800731997435	1049
100	103476	15.810179663871	1049
100	103526	15.819026332383	1049
100	103579	15.828053000895	1049
100	103644	15.836918335151	1049
100	103718	15.845804670099	1049
100	103791	15.855011005047	1049
100	103865	15.865740670099	1049
100	104072	15.892446671483	1049
100	104152	15.901692005739	1049
100	104218	15.918497006431	1049
100	104270	15.927403674943	1049
100	104338	15.936549009199	1049
100	104394	15.945395344147	1049
100	104465	15.954954009891	1049
100	104521	15.963760678403	1049
100	104577	15.972727346915	1049
100	104720	15.990468347607	1049
100	104778	15.999273681863	1049
100	104863	16.008140016811	1049
100	104946	16.017266351759	1049
100	105020	16.026552686707	1049
100	105084	16.037351683247	1049
100	105142	16.046177017503	1049
100	105206	16.055704683939	1049
100	105268	16.064830018195	1049
100	105332	16.077837684631	1049
100	105403	16.086823018887	1049
100	105456	16.096380353143	1049
100	105591	16.115023021655	1049
100	105654	16.123788355911	1049
100	105717	16.137396355911	1049
100	105789	16.146161690167	1049
100	105840	16.155339024423	1049
100	105897	16.164324358679	1049
100	105971	16.175852358679	1049
100	106044	16.185117692935	1049
100	106095	16.193755027191	1049
100	106153	16.203432361447	1049
100	106206	16.212969695703	1049
100	106277	16.221855029959	1049
100	106342	16.231383029959	1049
100	106404	16.240569698471	1049
100	106457	16.249396366983	1049
100	106519	16.258201701239	1049
100	106586	16.267048036187	1049
100	106654	16.276174371135	1049
100	106703	16.285071705391	1049
100	106765	16.294237039647	1049
100	106834	16.303044706083	1049
100	106897	16.311950040339	1049
100	106965	16.322178040339	1049
100	107014	16.331244708851	1049
100	107061	16.340250043107	1049
100	107117	16.349067377363	1049
100	107167	16.358134045875	1049
100	107230	16.366940714387	1049
100	107371	16.384721715079	1049
100	107468	16.394187049335	1049
100	107537	16.403513384283	1049
100	107598	16.412419719231	1049
100	107654	16.421566054179	1049
100	107729	16.430472389127	1049
100	107799	16.440200050027	1049
100	107852	16.449006718539	1049
100	107914	16.457952052795	1049
100	107987	16.466918387743	1049
100	108062	16.482197053487	1049
100	108120	16.491062387743	1049
100	108189	16.505290054179	1049
100	108265	16.514635388435	1049
100	108350	16.531779388435	1049
100	108418	16.541044722691	1049
100	108474	16.549582056947	1049
100	108525	16.558859391203	1049
100	108575	16.567876725459	1049
100	108629	16.576623393971	1049
100	108688	16.585388728227	1049
100	108753	16.594696728227	1049
100	108815	16.603502062483	1049
100	108877	16.612628397431	1049
100	108964	16.630066062483	1049
100	109037	16.639411396739	1049
100	109089	16.648228730995	1049
100	109152	16.657294065251	1049
100	109220	16.668022065251	1049
100	109275	16.677108733763	1049
100	109334	16.685914068019	1049
100	109395	16.694561734455	1049
100	109432	16.703519068711	1049
100	109499	16.712445403659	1049
100	109570	16.721830735147	1049
100	109629	16.730676069403	1049
100	109699	16.739963735839	1049
100	109938	16.775354737915	1049
100	110091	16.793255738607	1049
100	110433	16.837411741375	1049
100	110501	16.846457075631	1049
100	110565	16.855634409887	1049
100	110619	16.864481078399	1049
100	110696	16.873486412655	1049
100	110752	16.882512747603	1049
100	110814	16.892390079091	1049
100	110873	16.901216747603	1049
100	111025	16.918918081859	1049
100	111091	16.927814748987	1049
100	111163	16.936580083243	1049
100	111496	16.981206751755	1049
100	111564	16.990152086011	1049
100	111732	17.016988753139	1049
100	111932	17.043654754523	1049
100	112007	17.052460088779	1049
100	112058	17.061217423035	1049
100	112128	17.070122757291	1049
100	112183	17.079960091547	1049
100	112257	17.089005425803	1049
100	112643	17.153514429263	1049
100	112728	17.170627763519	1049
100	116531	17.715789475627	1049
100	116615	17.725154809883	1049
100	117633	17.876015821647	1049
100	122292	18.517595543443	1049
100	122377	18.526400877699	1049
100	122440	18.543385878391	1049
100	122515	18.552411212647	1049
100	122607	18.570036213339	1049
100	122668	18.578821547595	1049
100	122732	18.589069214031	1049
100	122813	18.597954548287	1049
100	122866	18.607511882543	1049
100	122944	18.616717216799	1049
100	122991	18.625434551055	1049
100	123054	18.634239885311	1049
100	123119	18.645667551747	1049
100	123174	18.654914220259	1049
100	123236	18.663679554515	1049
100	123298	18.672705889463	1049
100	123351	18.681303223719	1049
100	123399	18.690860557975	1049
100	123448	18.699977892231	1049
100	123499	18.708724560743	1049
100	123549	18.717891229255	1049
100	123605	18.726756563511	1049
100	123678	18.735982898459	1049
100	123740	18.745129233407	1049
100	123790	18.753726567663	1049
100	123823	18.763003901919	1049
100	123898	18.778959901919	1049
100	123956	18.787726570431	1049
100	124027	18.796611904687	1049
100	124260	18.831607240327	1049
100	124328	18.840752574583	1049
100	124377	18.849889908839	1049
100	124437	18.858716577351	1049
100	124523	18.867921911607	1049
100	124594	18.877008246555	1049
100	124952	18.921310247939	1049
100	125033	18.930355582195	1049
100	125178	18.955956582887	1049
100	125677	19.028239921295	1049
100	128178	19.351521956245	69
100	128859	19.398588955203	1049
100	128924	19.407514289459	1049
100	130117	19.624075971119	1049
100	130192	19.633201305375	1049
100	130417	19.660126973195	1049
100	130561	19.678027973887	1049
100	130971	19.713550975963	1049
100	131019	19.722677644475	1049
100	131087	19.731662978731	1049
100	131138	19.740560312987	1049
100	131203	19.749405647243	1049
100	131273	19.758171982191	1049
100	131342	19.770049313679	1049
100	131395	19.778854647935	1049
100	131465	19.788202314371	1049
100	131514	19.797207648627	1049
100	131570	19.805744982883	1049
100	131605	19.815282317139	1049
100	131671	19.827297983575	1049
100	131797	19.845200652087	1049
100	131853	19.854547320599	1049
100	131905	19.863312654855	1049
100	131957	19.872049989111	1049
100	132013	19.880836657623	1049
100	132071	19.889601991879	1049
100	132139	19.898748326827	1049
100	132189	19.907565661083	1049
100	132247	19.916690995339	1049
100	132313	19.925497330287	1049
100	132379	19.941714661775	1049
100	132527	19.959297330287	1049
100	132742	19.994688332363	1049
101	27898	4.802955139355	73
101	28008	4.805249807867	73
101	28644	4.806246808559	69
101	28958	4.825242477763	1049
101	29130	4.851212812711	1049
101	41883	6.656005287443	1049
101	42109	6.688735622391	1049
101	42305	6.724452959415	1049
101	42361	6.733588959415	1049
101	46324	7.269377003703	1049
101	57537	8.994859143487	1049
101	57602	9.003735143487	1049
101	72314	11.282340982923	1049
101	74382	11.598614008527	1049
101	74584	11.625683342783	1049
101	79121	12.280713722019	1049
101	79221	12.298596390531	1049
101	87674	13.538551161459	1049
101	88351	13.644892834815	1049
101	93545	14.390736214743	1049
101	97622	14.974930265951	1049
101	99219	15.197603614047	1049
101	106035	16.184729692935	1049
101	106141	16.202652361447	1049
101	108256	16.514247388435	1049
101	108517	16.558539391203	1049
101	122935	18.616309216799	1049
101	123390	18.690140557975	1049
101	124020	18.796463904687	1049
101	128169	19.351160618871	73
101	128613	19.364101358198	73
102	27947	4.803883806483	73
102	128139	19.350685289117	73
102	128313	19.35423278291	73
103	27948	4.803883806483	73
103	28630	4.806027809251	69
103	31320	5.145052834855	18
103	31510	5.171512837623	18
103	31990	5.225187842467	18
103	32270	5.269477846619	18
103	32359	5.278602847311	18
103	32495	5.296085182259	18
103	32828	5.341576187103	18
103	32892	5.350229187795	18
103	33368	5.411882858383	1049
103	33858	5.482678530355	18
103	36508	5.894086227239	18
103	37306	6.009573234851	18
103	37639	6.054082905439	18
103	37780	6.071725240387	18
103	38551	6.178977582255	18
103	38852	6.222954919279	18
103	39062	6.249942254919	18
103	39402	6.293991925507	18
103	42506	6.751790627235	18
103	42681	6.769720962183	18
103	42969	6.813749298515	18
103	43461	6.894318971871	18
103	44029	6.966658977407	18
103	45197	7.109713990555	18
103	45294	7.118678991247	18
103	46948	7.368133012007	18
103	47097	7.385755346955	18
103	47238	7.403377681903	18
103	47559	7.447615018927	18
103	47856	7.483310690899	18
103	48873	7.625691371867	18
103	49044	7.643793706815	18
103	49151	7.653030707507	18
103	49836	7.742453381555	18
103	51041	7.939014729651	18
103	54045	8.426389434147	18
103	57901	9.049697144871	1049
103	61550	9.604987182239	18
103	62001	9.658731187775	18
103	63294	9.853547868743	18
103	69666	10.917802617527	18
103	70245	10.989219957319	18
103	71137	11.113824638287	18
103	71239	11.122869638979	18
103	71710	11.185389310951	18
103	71853	11.203214645207	18
103	79345	12.316849057659	1049
103	79574	12.353031395375	18
103	79642	12.362236396067	18
103	81139	12.602230747623	1049
103	81361	12.628678083263	18
103	81979	12.717640757311	18
103	82362	12.771483095027	18
103	83703	12.957994778071	18
103	84274	13.047825118555	18
103	84489	13.074632454195	18
103	84693	13.118865124091	1049
103	85656	13.252546802983	18
103	86344	13.350899144851	18
103	86702	13.395548815439	18
103	87381	13.503133490871	18
103	95041	14.611290899863	1049
103	95309	14.647492904015	18
103	95595	14.691411908859	18
103	95683	14.700396909551	18
103	96597	14.832673587751	18
103	96735	14.850427922699	18
103	97127	14.903690593979	18
103	112631	17.145487096391	18
103	113466	17.277921106079	18
103	113608	17.295883441027	18
103	113775	17.313605775975	18
103	114527	17.421427785663	18
103	115055	17.492640458327	18
103	115198	17.510182793275	18
103	115392	17.536890128915	18
103	116441	17.698237142063	18
103	116902	17.769263813343	18
103	117499	17.850066153827	18
103	117636	17.876016488775	1049
103	117930	17.911638492927	18
103	118634	18.000885500539	18
103	119513	18.135257511611	18
103	119739	18.162384847251	18
103	120714	18.295821859015	18
103	120974	18.331454195347	18
103	121230	18.366906531679	18
103	121378	18.384668866627	18
103	121816	18.446668538599	18
103	124774	18.894740580119	18
103	124921	18.912562915067	18
103	125667	19.028237589115	18
103	127028	19.224020271467	18
103	127342	19.259714275619	18
103	128289	19.353737959013	69
103	128330	19.354585959013	73
103	130864	19.698765310911	73
104	28972	4.825541143507	1049
104	42309	6.724751625159	1049
104	57472	8.986201809231	1049
104	74253	11.572592671503	1049
104	79041	12.263599053507	1049
104	93046	14.309884873567	1049
104	103698	15.839649000895	1049
104	105954	16.167535024423	1049
104	108260	16.514546054179	1049
104	112544	17.136352094315	1049
104	123874	18.770282567663	1049
105	29319	4.878498480531	69
106	43769	6.929343474985	18
106	87472	13.512130658345	18
107	54068	8.434756099891	1049
107	71736	11.185950976003	1049
107	122333	18.517894876315	1049
108	132796	0.1	0
108	132796	0.2	0
108	132796	0.3	0
108	132796	0.4	0
108	132796	0.5	0
108	132796	0.6	0
108	132796	0.7	0
108	132796	0.8	0
108	132796	0.9	0
108	132796	1	0
108	132796	1.1	0
108	132796	1.2	0
108	132796	1.3	0
108	132796	1.4	0
108	132796	1.5	0
108	132796	1.6	0
108	132796	1.7	0
108	132796	1.8	0
108	132796	1.9	0
108	132796	2	0
108	132796	2.1	0
108	132796	2.2	0
108	132796	2.3	0
108	132796	2.4	0
108	132796	2.5	0
108	132796	2.6	0
108	132796	2.7	0
108	132796	2.8	0
108	132796	2.9	0
108	132796	3	0
108	132796	3.1	0
108	132796	3.2	0
108	132796	3.3	0
108	132796	3.4	0
108	132796	3.5	0
108	132796	3.6	0
108	132796	3.7	0
108	132796	3.8	0
108	132796	3.9	0
108	132796	4	0
108	132796	4.1	0
108	132796	4.2	0
108	132796	4.3	0
108	132796	4.4	0
108	132796	4.5	0
108	132796	4.6	0
108	132796	4.7	0
108	132796	4.8	0
108	132796	4.9	0
108	132796	5	0
108	132796	5.1	0
108	132796	5.2	0
108	132796	5.3	0
108	132796	5.4	0
108	132796	5.5	0
108	132796	5.6	0
108	132796	5.7	0
108	132796	5.8	0
108	132796	5.9	0
108	132796	6	0
108	132796	6.1	0
108	132796	6.2	0
108	132796	6.3	0
108	132796	6.4	0
108	132796	6.5	0
108	132796	6.6	0
108	132796	6.7	0
108	132796	6.8	0
108	132796	6.9	0
108	132796	7	0
108	132796	7.1	0
108	132796	7.2	0
108	132796	7.3	0
108	132796	7.4	0
108	132796	7.5	0
108	132796	7.6	0
108	132796	7.7	0
108	132796	7.8	0
108	132796	7.9	0
108	132796	8	0
108	132796	8.1	0
108	132796	8.2	0
108	132796	8.3	0
108	132796	8.4	0
108	132796	8.5	0
108	132796	8.6	0
108	132796	8.7	0
108	132796	8.8	0
108	132796	8.9	0
108	132796	9	0
108	132796	9.1	0
108	132796	9.2	0
108	132796	9.3	0
108	132796	9.4	0
108	132796	9.5	0
108	132796	9.6	0
108	132796	9.7	0
108	132796	9.8	0
108	132796	9.9	0
108	132796	10	0
108	132796	10.1	0
108	132796	10.2	0
108	132796	10.3	0
108	132796	10.4	0
108	132796	10.5	0
108	132796	10.6	0
108	132796	10.7	0
108	132796	10.8	0
108	132796	10.9	0
108	132796	11	0
108	132796	11.1	0
108	132796	11.2	0
108	132796	11.3	0
108	132796	11.4	0
108	132796	11.5	0
108	132796	11.6	0
108	132796	11.7	0
108	132796	11.8	0
108	132796	11.9	0
108	132796	12	0
108	132796	12.1	0
108	132796	12.2	0
108	132796	12.3	0
108	132796	12.4	0
108	132796	12.5	0
108	132796	12.6	0
108	132796	12.7	0
108	132796	12.8	0
108	132796	12.9	0
108	132796	13	0
108	132796	13.1	0
108	132796	13.2	0
108	132796	13.3	0
108	132796	13.4	0
108	132796	13.5	0
108	132796	13.6	0
108	132796	13.7	0
108	132796	13.8	0
108	132796	13.9	0
108	132796	14	0
108	132796	14.1	0
108	132796	14.2	0
108	132796	14.3	0
108	132796	14.4	0
108	132796	14.5	0
108	132796	14.6	0
108	132796	14.7	0
108	132796	14.8	0
108	132796	14.9	0
108	132796	15	0
108	132796	15.1	0
108	132796	15.2	0
108	132796	15.3	0
108	132796	15.4	0
108	132796	15.5	0
108	132796	15.6	0
108	132796	15.7	0
108	132796	15.8	0
108	132796	15.9	0
108	132796	16	0
108	132796	16.1	0
108	132796	16.2	0
108	132796	16.3	0
108	132796	16.4	0
108	132796	16.5	0
108	132796	16.6	0
108	132796	16.7	0
108	132796	16.8	0
108	132796	16.9	0
108	132796	17	0
108	132796	17.1	0
108	132796	17.2	0
108	132796	17.3	0
108	132796	17.4	0
108	132796	17.5	0
108	132796	17.6	0
108	132796	17.7	0
108	132796	17.8	0
108	132796	17.9	0
108	132796	18	0
108	132796	18.1	0
108	132796	18.2	0
108	132796	18.3	0
108	132796	18.4	0
108	132796	18.5	0
108	132796	18.6	0
108	132796	18.7	0
108	132796	18.8	0
108	132796	18.9	0
108	132796	19	0
108	132796	19.1	0
108	132796	19.2	0
108	132796	19.3	0
108	132796	19.4	0
108	132796	19.5	0
108	132796	19.6	0
108	132796	19.7	0
108	132796	19.8	0
108	132796	19.9	0
108	132796	20	0
109	132796	0.1	0
109	132796	0.2	0
109	132796	0.3	0
109	132796	0.4	0
109	132796	0.5	0
109	132796	0.6	0
109	132796	0.7	0
109	132796	0.8	0
109	132796	0.9	0
109	132796	1	0
109	132796	1.1	0
109	132796	1.2	0
109	132796	1.3	0
109	132796	1.4	0
109	132796	1.5	0
109	132796	1.6	0
109	132796	1.7	0
109	132796	1.8	0
109	132796	1.9	0
109	132796	2	0
109	132796	2.1	0
109	132796	2.2	0
109	132796	2.3	0
109	132796	2.4	0
109	132796	2.5	0
109	132796	2.6	0
109	132796	2.7	0
109	132796	2.8	0
109	132796	2.9	0
109	132796	3	0
109	132796	3.1	0
109	132796	3.2	0
109	132796	3.3	0
109	132796	3.4	0
109	132796	3.5	0
109	132796	3.6	0
109	132796	3.7	0
109	132796	3.8	0
109	132796	3.9	0
109	132796	4	0
109	132796	4.1	0
109	132796	4.2	0
109	132796	4.3	0
109	132796	4.4	0
109	132796	4.5	0
109	132796	4.6	0
109	132796	4.7	0
109	132796	4.8	0
109	132796	4.9	0
109	132796	5	0
109	132796	5.1	0
109	132796	5.2	0
109	132796	5.3	0
109	132796	5.4	0
109	132796	5.5	0
109	132796	5.6	0
109	132796	5.7	0
109	132796	5.8	0
109	132796	5.9	0
109	132796	6	0
109	132796	6.1	0
109	132796	6.2	0
109	132796	6.3	0
109	132796	6.4	0
109	132796	6.5	0
109	132796	6.6	0
109	132796	6.7	0
109	132796	6.8	0
109	132796	6.9	0
109	132796	7	0
109	132796	7.1	0
109	132796	7.2	0
109	132796	7.3	0
109	132796	7.4	0
109	132796	7.5	0
109	132796	7.6	0
109	132796	7.7	0
109	132796	7.8	0
109	132796	7.9	0
109	132796	8	0
109	132796	8.1	0
109	132796	8.2	0
109	132796	8.3	0
109	132796	8.4	0
109	132796	8.5	0
109	132796	8.6	0
109	132796	8.7	0
109	132796	8.8	0
109	132796	8.9	0
109	132796	9	0
109	132796	9.1	0
109	132796	9.2	0
109	132796	9.3	0
109	132796	9.4	0
109	132796	9.5	0
109	132796	9.6	0
109	132796	9.7	0
109	132796	9.8	0
109	132796	9.9	0
109	132796	10	0
109	132796	10.1	0
109	132796	10.2	0
109	132796	10.3	0
109	132796	10.4	0
109	132796	10.5	0
109	132796	10.6	0
109	132796	10.7	0
109	132796	10.8	0
109	132796	10.9	0
109	132796	11	0
109	132796	11.1	0
109	132796	11.2	0
109	132796	11.3	0
109	132796	11.4	0
109	132796	11.5	0
109	132796	11.6	0
109	132796	11.7	0
109	132796	11.8	0
109	132796	11.9	0
109	132796	12	0
109	132796	12.1	0
109	132796	12.2	0
109	132796	12.3	0
109	132796	12.4	0
109	132796	12.5	0
109	132796	12.6	0
109	132796	12.7	0
109	132796	12.8	0
109	132796	12.9	0
109	132796	13	0
109	132796	13.1	0
109	132796	13.2	0
109	132796	13.3	0
109	132796	13.4	0
109	132796	13.5	0
109	132796	13.6	0
109	132796	13.7	0
109	132796	13.8	0
109	132796	13.9	0
109	132796	14	0
109	132796	14.1	0
109	132796	14.2	0
109	132796	14.3	0
109	132796	14.4	0
109	132796	14.5	0
109	132796	14.6	0
109	132796	14.7	0
109	132796	14.8	0
109	132796	14.9	0
109	132796	15	0
109	132796	15.1	0
109	132796	15.2	0
109	132796	15.3	0
109	132796	15.4	0
109	132796	15.5	0
109	132796	15.6	0
109	132796	15.7	0
109	132796	15.8	0
109	132796	15.9	0
109	132796	16	0
109	132796	16.1	0
109	132796	16.2	0
109	132796	16.3	0
109	132796	16.4	0
109	132796	16.5	0
109	132796	16.6	0
109	132796	16.7	0
109	132796	16.8	0
109	132796	16.9	0
109	132796	17	0
109	132796	17.1	0
109	132796	17.2	0
109	132796	17.3	0
109	132796	17.4	0
109	132796	17.5	0
109	132796	17.6	0
109	132796	17.7	0
109	132796	17.8	0
109	132796	17.9	0
109	132796	18	0
109	132796	18.1	0
109	132796	18.2	0
109	132796	18.3	0
109	132796	18.4	0
109	132796	18.5	0
109	132796	18.6	0
109	132796	18.7	0
109	132796	18.8	0
109	132796	18.9	0
109	132796	19	0
109	132796	19.1	0
109	132796	19.2	0
109	132796	19.3	0
109	132796	19.4	0
109	132796	19.5	0
109	132796	19.6	0
109	132796	19.7	0
109	132796	19.8	0
109	132796	19.9	0
109	132796	20	0

