version 2
run ExperimentAndResearchData-0-20220817-16:18:51-59844
attr configname ExperimentAndResearchData
attr datetime 20220817-16:18:51
attr experiment ExperimentAndResearchData
attr inifile omnetpp.ini
attr iterationvars ""
attr iterationvarsf ""
attr measurement ""
attr network Multihop
attr processid 59844
attr repetition 0
attr replication #0
attr resultdir results
attr runnumber 0
attr seedset 0
param *.physicalEnvironment.ground.typename "\"FlatGround\""
param *.physicalEnvironment.ground.elevation 0m
param *.radioMedium.pathLoss.alpha 2.958
param *.radioMedium.typename "\"ApskScalarRadioMedium\""
param *.radioMedium.backgroundNoise.power -110dBm
param *.radioMedium.mediumLimitCache.centerFrequency 2.4GHz
param *.host*.wlan[0].radio.typename "\"ApskScalarRadio\""
param *.host*.wlan[0].radio.centerFrequency 2.4GHz
param *.host*.wlan[0].radio.bandwidth 5MHz
param *.host*.wlan[0].radio.transmitter.modulation "\"QPSK\""
param *.host*.wlan[0].radio.transmitter.power 10mW
param *.host*.wlan[0].radio.transmitter.preambleDuration 10us
param *.host*.wlan[0].radio.transmitter.headerLength 8B
param *.host*.wlan[0].radio.receiver.modulation "\"QPSK\""
param *.host*.wlan[0].radio.receiver.sensitivity -120dBm
param *.host*.wlan[0].radio.receiver.energyDetection -100dBm
param *.host*.wlan[0].radio.receiver.snirThreshold 4dB
param *.host*.ipv4.arp.typename "\"GlobalArp\""
param *.host*.forwarding true
param *.configurator.optimizeRoutes false
param *.hostA.numApps 1
param *.hostA.app[0].typename "\"UdpBasicApp\""
param *.hostA.app[0].destAddresses "\"hostB\""
param *.hostA.app[0].destPort 5000
param *.hostA.app[0].messageLength 1000B
param *.hostA.app[0].sendInterval exponential(12ms)
param *.hostA.app[0].packetName "\"UDPData\""
param *.hostB.numApps 1
param *.hostB.app[0].typename "\"UdpSink\""
param *.hostB.app[0].localPort 5000
param *.host*.wlan[0].typename "\"WirelessInterface\""
param *.host*.wlan[0].radio.typename "\"UnitDiskRadio\""
param *.host*.wlan[0].radio.transmitter.communicationRange 300m
param *.host*.wlan[0].radio.transmitter.interferenceRange 500m
param *.host*.wlan[0].mac.typename "\"CsmaCaMac\""
param *.host*.wlan[0].mac.ackTimeout 300us
param *.host*.wlan[0].mac.useAck true
param *.host*.wlan[0].queue.typename "\"DropTailQueue\""
param *.host*.**.bitrate 1Mbps
param *.hostA.wlan[0].radio.displayCommunicationRange true
param *.hostC.wlan[0].radio.displayCommunicationRange true
param *.configurator.addStaticRoutes false
param *.host*.typename "\"AodvRouter\""
param *.host*.mobility.typename "\"StationaryMobility\""
param *.host*.mobility.initialZ 0.1m
param *.physicalEnvironment.config "xmldoc(\"mine.xml\")"
param *.radioMedium.obstacleLoss.typename "\"IdealObstacleLoss\""
param *.visualizer.sceneVisualizer.descriptionFigure "\"title\""
param *.visualizer.physicalLinkVisualizer.displayLinks true
param *.visualizer.physicalLinkVisualizer.packetFilter "\"UDPData*\""

vector 0 Multihop.hostA.wlan[0].radio radioMode:vector ETV
attr interpolationmode sample-hold
attr source radioModeChanged
attr title "Radio mode, vector"
vector 1 Multihop.hostB.wlan[0].radio radioMode:vector ETV
attr interpolationmode sample-hold
attr source radioModeChanged
attr title "Radio mode, vector"
vector 2 Multihop.hostC.wlan[0].radio radioMode:vector ETV
attr interpolationmode sample-hold
attr source radioModeChanged
attr title "Radio mode, vector"
vector 3 Multihop.hostD.wlan[0].radio radioMode:vector ETV
attr interpolationmode sample-hold
attr source radioModeChanged
attr title "Radio mode, vector"
vector 4 Multihop.hostE.wlan[0].radio radioMode:vector ETV
attr interpolationmode sample-hold
attr source radioModeChanged
attr title "Radio mode, vector"
vector 5 Multihop.hostF.wlan[0].radio radioMode:vector ETV
attr interpolationmode sample-hold
attr source radioModeChanged
attr title "Radio mode, vector"
vector 6 Multihop.hostG.wlan[0].radio radioMode:vector ETV
attr interpolationmode sample-hold
attr source radioModeChanged
attr title "Radio mode, vector"
vector 7 Multihop.hostH.wlan[0].radio radioMode:vector ETV
attr interpolationmode sample-hold
attr source radioModeChanged
attr title "Radio mode, vector"
vector 8 Multihop.hostA.wlan[0].radio receptionState:vector ETV
attr interpolationmode sample-hold
attr source receptionStateChanged
attr title "Radio reception state, vector"
vector 9 Multihop.hostB.wlan[0].radio receptionState:vector ETV
attr interpolationmode sample-hold
attr source receptionStateChanged
attr title "Radio reception state, vector"
vector 10 Multihop.hostC.wlan[0].radio receptionState:vector ETV
attr interpolationmode sample-hold
attr source receptionStateChanged
attr title "Radio reception state, vector"
vector 11 Multihop.hostD.wlan[0].radio receptionState:vector ETV
attr interpolationmode sample-hold
attr source receptionStateChanged
attr title "Radio reception state, vector"
vector 12 Multihop.hostE.wlan[0].radio receptionState:vector ETV
attr interpolationmode sample-hold
attr source receptionStateChanged
attr title "Radio reception state, vector"
vector 13 Multihop.hostF.wlan[0].radio receptionState:vector ETV
attr interpolationmode sample-hold
attr source receptionStateChanged
attr title "Radio reception state, vector"
vector 14 Multihop.hostG.wlan[0].radio receptionState:vector ETV
attr interpolationmode sample-hold
attr source receptionStateChanged
attr title "Radio reception state, vector"
vector 15 Multihop.hostH.wlan[0].radio receptionState:vector ETV
attr interpolationmode sample-hold
attr source receptionStateChanged
attr title "Radio reception state, vector"
vector 16 Multihop.hostA.app[0] packetSent:vector(packetBytes) ETV
attr interpolationmode none
attr source packetSent
attr title "packets sent, vector(packetBytes)"
vector 17 Multihop logPacketSent:vector(count) ETV
attr source hostA.app[0].packetSent
vector 18 Multihop.hostA.udp packetSent:vector(packetBytes) ETV
attr interpolationmode none
attr source packetSent
attr title "packets sent, vector(packetBytes)"
vector 19 Multihop.hostA.wlan[0].mac.queue packetPushed:vector(packetBytes) ETV
attr interpolationmode none
attr title "packet pushed, vector(packetBytes)"
vector 20 Multihop.hostA.wlan[0].mac.queue queueLength:vector ETV
attr interpolationmode sample-hold
attr source "count(packetPushed) - count(packetPopped) - count(packetRemoved) - count(packetDropped)"
attr title "queue length, vector"
vector 21 Multihop.hostA.wlan[0].mac.queue packetPopped:vector(packetBytes) ETV
attr interpolationmode none
attr title "packet popped, vector(packetBytes)"
vector 22 Multihop.hostA.wlan[0].mac.queue queueingTime:vector ETV
attr interpolationmode none
attr source queueingTime(packetPopped)
attr title "queueing times, vector"
attr unit s
vector 23 Multihop.hostA.wlan[0].radio transmissionState:vector ETV
attr interpolationmode sample-hold
attr source transmissionStateChanged
attr title "Radio transmission state, vector"
vector 24 Multihop.hostC.udp packetReceived:vector(packetBytes) ETV
attr interpolationmode none
attr source packetReceived
attr title "packets received, vector(packetBytes)"
vector 25 Multihop.hostC.udp passedUpPk:vector(count) ETV
attr interpolationmode none
attr source packetSentToUpper
attr title "packets passed up, vector(count)"
vector 26 Multihop.hostD.udp packetReceived:vector(packetBytes) ETV
attr interpolationmode none
attr source packetReceived
attr title "packets received, vector(packetBytes)"
vector 27 Multihop.hostD.udp passedUpPk:vector(count) ETV
attr interpolationmode none
attr source packetSentToUpper
attr title "packets passed up, vector(count)"
vector 28 Multihop.hostD.udp packetSent:vector(packetBytes) ETV
attr interpolationmode none
attr source packetSent
attr title "packets sent, vector(packetBytes)"
vector 29 Multihop.hostD.wlan[0].mac.queue packetPushed:vector(packetBytes) ETV
attr interpolationmode none
attr title "packet pushed, vector(packetBytes)"
vector 30 Multihop.hostD.wlan[0].mac.queue queueLength:vector ETV
attr interpolationmode sample-hold
attr source "count(packetPushed) - count(packetPopped) - count(packetRemoved) - count(packetDropped)"
attr title "queue length, vector"
vector 31 Multihop.hostD.wlan[0].mac.queue packetPopped:vector(packetBytes) ETV
attr interpolationmode none
attr title "packet popped, vector(packetBytes)"
vector 32 Multihop.hostD.wlan[0].mac.queue queueingTime:vector ETV
attr interpolationmode none
attr source queueingTime(packetPopped)
attr title "queueing times, vector"
attr unit s
vector 33 Multihop.hostD.wlan[0].radio transmissionState:vector ETV
attr interpolationmode sample-hold
attr source transmissionStateChanged
attr title "Radio transmission state, vector"
vector 34 Multihop.hostF.udp packetReceived:vector(packetBytes) ETV
attr interpolationmode none
attr source packetReceived
attr title "packets received, vector(packetBytes)"
vector 35 Multihop.hostF.udp passedUpPk:vector(count) ETV
attr interpolationmode none
attr source packetSentToUpper
attr title "packets passed up, vector(count)"
vector 36 Multihop.hostA.udp packetReceived:vector(packetBytes) ETV
attr interpolationmode none
attr source packetReceived
attr title "packets received, vector(packetBytes)"
vector 37 Multihop.hostA.udp passedUpPk:vector(count) ETV
attr interpolationmode none
attr source packetSentToUpper
attr title "packets passed up, vector(count)"
vector 38 Multihop.hostH.wlan[0].mac packetDropIncorrectlyReceived:vector(packetBytes) ETV
attr interpolationmode none
attr source packetDropReasonIsIncorrectlyReceived(packetDropped)
attr title "packet drop: incorrectly received, vector(packetBytes)"
vector 39 Multihop.hostC.udp packetSent:vector(packetBytes) ETV
attr interpolationmode none
attr source packetSent
attr title "packets sent, vector(packetBytes)"
vector 40 Multihop.hostC.wlan[0].mac.queue packetPushed:vector(packetBytes) ETV
attr interpolationmode none
attr title "packet pushed, vector(packetBytes)"
vector 41 Multihop.hostC.wlan[0].mac.queue queueLength:vector ETV
attr interpolationmode sample-hold
attr source "count(packetPushed) - count(packetPopped) - count(packetRemoved) - count(packetDropped)"
attr title "queue length, vector"
vector 42 Multihop.hostC.wlan[0].mac.queue packetPopped:vector(packetBytes) ETV
attr interpolationmode none
attr title "packet popped, vector(packetBytes)"
vector 43 Multihop.hostC.wlan[0].mac.queue queueingTime:vector ETV
attr interpolationmode none
attr source queueingTime(packetPopped)
attr title "queueing times, vector"
attr unit s
vector 44 Multihop.hostC.wlan[0].radio transmissionState:vector ETV
attr interpolationmode sample-hold
attr source transmissionStateChanged
attr title "Radio transmission state, vector"
vector 45 Multihop.hostE.udp packetReceived:vector(packetBytes) ETV
attr interpolationmode none
attr source packetReceived
attr title "packets received, vector(packetBytes)"
vector 46 Multihop.hostE.udp passedUpPk:vector(count) ETV
attr interpolationmode none
attr source packetSentToUpper
attr title "packets passed up, vector(count)"
vector 47 Multihop.hostG.wlan[0].mac packetDropIncorrectlyReceived:vector(packetBytes) ETV
attr interpolationmode none
attr source packetDropReasonIsIncorrectlyReceived(packetDropped)
attr title "packet drop: incorrectly received, vector(packetBytes)"
vector 48 Multihop.hostE.udp packetSent:vector(packetBytes) ETV
attr interpolationmode none
attr source packetSent
attr title "packets sent, vector(packetBytes)"
vector 49 Multihop.hostE.wlan[0].mac.queue packetPushed:vector(packetBytes) ETV
attr interpolationmode none
attr title "packet pushed, vector(packetBytes)"
vector 50 Multihop.hostE.wlan[0].mac.queue queueLength:vector ETV
attr interpolationmode sample-hold
attr source "count(packetPushed) - count(packetPopped) - count(packetRemoved) - count(packetDropped)"
attr title "queue length, vector"
vector 51 Multihop.hostE.wlan[0].mac.queue packetPopped:vector(packetBytes) ETV
attr interpolationmode none
attr title "packet popped, vector(packetBytes)"
vector 52 Multihop.hostE.wlan[0].mac.queue queueingTime:vector ETV
attr interpolationmode none
attr source queueingTime(packetPopped)
attr title "queueing times, vector"
attr unit s
vector 53 Multihop.hostE.wlan[0].radio transmissionState:vector ETV
attr interpolationmode sample-hold
attr source transmissionStateChanged
attr title "Radio transmission state, vector"
vector 54 Multihop.hostF.udp packetSent:vector(packetBytes) ETV
attr interpolationmode none
attr source packetSent
attr title "packets sent, vector(packetBytes)"
vector 55 Multihop.hostF.wlan[0].mac.queue packetPushed:vector(packetBytes) ETV
attr interpolationmode none
attr title "packet pushed, vector(packetBytes)"
vector 56 Multihop.hostF.wlan[0].mac.queue queueLength:vector ETV
attr interpolationmode sample-hold
attr source "count(packetPushed) - count(packetPopped) - count(packetRemoved) - count(packetDropped)"
attr title "queue length, vector"
vector 57 Multihop.hostF.wlan[0].mac.queue packetPopped:vector(packetBytes) ETV
attr interpolationmode none
attr title "packet popped, vector(packetBytes)"
vector 58 Multihop.hostF.wlan[0].mac.queue queueingTime:vector ETV
attr interpolationmode none
attr source queueingTime(packetPopped)
attr title "queueing times, vector"
attr unit s
vector 59 Multihop.hostG.udp packetReceived:vector(packetBytes) ETV
attr interpolationmode none
attr source packetReceived
attr title "packets received, vector(packetBytes)"
vector 60 Multihop.hostG.udp passedUpPk:vector(count) ETV
attr interpolationmode none
attr source packetSentToUpper
attr title "packets passed up, vector(count)"
vector 61 Multihop.hostF.wlan[0].radio transmissionState:vector ETV
attr interpolationmode sample-hold
attr source transmissionStateChanged
attr title "Radio transmission state, vector"
vector 62 Multihop.hostH.udp packetReceived:vector(packetBytes) ETV
attr interpolationmode none
attr source packetReceived
attr title "packets received, vector(packetBytes)"
vector 63 Multihop.hostH.udp passedUpPk:vector(count) ETV
attr interpolationmode none
attr source packetSentToUpper
attr title "packets passed up, vector(count)"
vector 64 Multihop.hostH.udp packetSent:vector(packetBytes) ETV
attr interpolationmode none
attr source packetSent
attr title "packets sent, vector(packetBytes)"
vector 65 Multihop.hostH.wlan[0].mac.queue packetPushed:vector(packetBytes) ETV
attr interpolationmode none
attr title "packet pushed, vector(packetBytes)"
vector 66 Multihop.hostH.wlan[0].mac.queue queueLength:vector ETV
attr interpolationmode sample-hold
attr source "count(packetPushed) - count(packetPopped) - count(packetRemoved) - count(packetDropped)"
attr title "queue length, vector"
vector 67 Multihop.hostH.wlan[0].mac.queue packetPopped:vector(packetBytes) ETV
attr interpolationmode none
attr title "packet popped, vector(packetBytes)"
vector 68 Multihop.hostH.wlan[0].mac.queue queueingTime:vector ETV
attr interpolationmode none
attr source queueingTime(packetPopped)
attr title "queueing times, vector"
attr unit s
vector 69 Multihop.hostH.wlan[0].radio transmissionState:vector ETV
attr interpolationmode sample-hold
attr source transmissionStateChanged
attr title "Radio transmission state, vector"
vector 70 Multihop.hostB.wlan[0].radio bitErrorRate:vector ETV
attr source bitErrorRate(packetSentToUpper)
attr title "Bit error rate, vector"
vector 71 Multihop.hostB.udp packetReceived:vector(packetBytes) ETV
attr interpolationmode none
attr source packetReceived
attr title "packets received, vector(packetBytes)"
vector 72 Multihop.hostB.udp passedUpPk:vector(count) ETV
attr interpolationmode none
attr source packetSentToUpper
attr title "packets passed up, vector(count)"
vector 73 Multihop.hostB.udp packetSent:vector(packetBytes) ETV
attr interpolationmode none
attr source packetSent
attr title "packets sent, vector(packetBytes)"
vector 74 Multihop.hostB.wlan[0].mac.queue packetPushed:vector(packetBytes) ETV
attr interpolationmode none
attr title "packet pushed, vector(packetBytes)"
vector 75 Multihop.hostB.wlan[0].mac.queue queueLength:vector ETV
attr interpolationmode sample-hold
attr source "count(packetPushed) - count(packetPopped) - count(packetRemoved) - count(packetDropped)"
attr title "queue length, vector"
vector 76 Multihop.hostB.wlan[0].mac.queue packetPopped:vector(packetBytes) ETV
attr interpolationmode none
attr title "packet popped, vector(packetBytes)"
vector 77 Multihop.hostB.wlan[0].mac.queue queueingTime:vector ETV
attr interpolationmode none
attr source queueingTime(packetPopped)
attr title "queueing times, vector"
attr unit s
vector 78 Multihop.hostD.wlan[0].mac packetDropIncorrectlyReceived:vector(packetBytes) ETV
attr interpolationmode none
attr source packetDropReasonIsIncorrectlyReceived(packetDropped)
attr title "packet drop: incorrectly received, vector(packetBytes)"
vector 79 Multihop.hostG.udp packetSent:vector(packetBytes) ETV
attr interpolationmode none
attr source packetSent
attr title "packets sent, vector(packetBytes)"
vector 80 Multihop.hostG.wlan[0].mac.queue packetPushed:vector(packetBytes) ETV
attr interpolationmode none
attr title "packet pushed, vector(packetBytes)"
vector 81 Multihop.hostG.wlan[0].mac.queue queueLength:vector ETV
attr interpolationmode sample-hold
attr source "count(packetPushed) - count(packetPopped) - count(packetRemoved) - count(packetDropped)"
attr title "queue length, vector"
vector 82 Multihop.hostG.wlan[0].mac.queue packetPopped:vector(packetBytes) ETV
attr interpolationmode none
attr title "packet popped, vector(packetBytes)"
vector 83 Multihop.hostG.wlan[0].mac.queue queueingTime:vector ETV
attr interpolationmode none
attr source queueingTime(packetPopped)
attr title "queueing times, vector"
attr unit s
vector 84 Multihop.hostG.wlan[0].radio transmissionState:vector ETV
attr interpolationmode sample-hold
attr source transmissionStateChanged
attr title "Radio transmission state, vector"
vector 85 Multihop.hostC.wlan[0].mac packetDropIncorrectlyReceived:vector(packetBytes) ETV
attr interpolationmode none
attr source packetDropReasonIsIncorrectlyReceived(packetDropped)
attr title "packet drop: incorrectly received, vector(packetBytes)"
vector 86 Multihop.hostB.wlan[0].radio transmissionState:vector ETV
attr interpolationmode sample-hold
attr source transmissionStateChanged
attr title "Radio transmission state, vector"
vector 87 Multihop.hostG.wlan[0].mac packetDropNotAddressedToUs:vector(packetBytes) ETV
attr interpolationmode none
attr source packetDropReasonIsNotAddressedToUs(packetDropped)
attr title "packet drop: not addressed to us, vector(packetBytes)"
vector 88 Multihop.hostB.wlan[0].mac packetDropNotAddressedToUs:vector(packetBytes) ETV
attr interpolationmode none
attr source packetDropReasonIsNotAddressedToUs(packetDropped)
attr title "packet drop: not addressed to us, vector(packetBytes)"
vector 89 Multihop.hostE.wlan[0].mac packetDropNotAddressedToUs:vector(packetBytes) ETV
attr interpolationmode none
attr source packetDropReasonIsNotAddressedToUs(packetDropped)
attr title "packet drop: not addressed to us, vector(packetBytes)"
vector 90 Multihop.hostH.wlan[0].mac packetDropNotAddressedToUs:vector(packetBytes) ETV
attr interpolationmode none
attr source packetDropReasonIsNotAddressedToUs(packetDropped)
attr title "packet drop: not addressed to us, vector(packetBytes)"
vector 91 Multihop.hostC.wlan[0].mac packetDropNotAddressedToUs:vector(packetBytes) ETV
attr interpolationmode none
attr source packetDropReasonIsNotAddressedToUs(packetDropped)
attr title "packet drop: not addressed to us, vector(packetBytes)"
vector 92 Multihop.hostF.wlan[0].mac packetDropNotAddressedToUs:vector(packetBytes) ETV
attr interpolationmode none
attr source packetDropReasonIsNotAddressedToUs(packetDropped)
attr title "packet drop: not addressed to us, vector(packetBytes)"
vector 93 Multihop.hostA.wlan[0].mac packetDropNotAddressedToUs:vector(packetBytes) ETV
attr interpolationmode none
attr source packetDropReasonIsNotAddressedToUs(packetDropped)
attr title "packet drop: not addressed to us, vector(packetBytes)"
vector 94 Multihop.hostD.wlan[0].mac packetDropNotAddressedToUs:vector(packetBytes) ETV
attr interpolationmode none
attr source packetDropReasonIsNotAddressedToUs(packetDropped)
attr title "packet drop: not addressed to us, vector(packetBytes)"
vector 95 Multihop.hostB.app[0] packetReceived:vector(packetBytes) ETV
attr interpolationmode none
attr source packetReceived
attr title "packets received, vector(packetBytes)"
vector 96 Multihop.hostB.app[0] throughput:vector ETV
attr source throughput(packetReceived)
attr title "throughput, vector"
attr unit bps
vector 97 Multihop.hostB.app[0] endToEndDelay:vector ETV
attr interpolationmode none
attr source dataAge(packetReceived)
attr title "end-to-end delay, vector"
attr unit s
vector 98 Multihop.hostB.app[0] rcvdPkSeqNo:vector ETV
attr interpolationmode none
attr source appPkSeqNo(packetReceived)
attr title "received packet sequence number, vector"
vector 99 Multihop logPacketReceived:vector(count) ETV
attr source hostB.app[0].packetReceived
vector 100 Multihop.hostA.wlan[0].mac packetDropRetryLimitReached:vector(packetBytes) ETV
attr interpolationmode none
attr source packetDropReasonIsRetryLimitReached(packetDropped)
attr title "packet drop: retry limit reached, vector(packetBytes)"
vector 101 Multihop.hostF.wlan[0].mac packetDropIncorrectlyReceived:vector(packetBytes) ETV
attr interpolationmode none
attr source packetDropReasonIsIncorrectlyReceived(packetDropped)
attr title "packet drop: incorrectly received, vector(packetBytes)"
vector 102 Multihop.hostE.wlan[0].mac packetDropIncorrectlyReceived:vector(packetBytes) ETV
attr interpolationmode none
attr source packetDropReasonIsIncorrectlyReceived(packetDropped)
attr title "packet drop: incorrectly received, vector(packetBytes)"
vector 103 Multihop.hostA.app[0] throughput:vector ETV
attr source throughput(packetReceived)
attr title "throughput, vector"
attr unit bps
0	0	0	0
0	0	0	0
0	0	0	2
0	29	0.017629494655	3
0	38	0.018287494655	2
0	205	0.336532776025	3
0	214	0.337190776025	2
0	659	0.362314095607	3
0	668	0.362532095607	2
0	680	0.362982095607	3
0	696	0.371448095607	2
0	766	0.380524430555	3
0	798	0.388990430555	2
0	853	0.389800430555	3
0	888	0.398266430555	2
0	912	0.400956430555	3
0	924	0.409422430555	2
0	959	0.409802765503	3
0	968	0.418268765503	2
0	1003	0.418549100451	3
0	1014	0.427015100451	2
0	1140	0.444936769655	3
0	1173	0.453402769655	2
0	1230	0.454712769655	3
0	1286	0.463178769655	2
0	1300	0.466068769655	3
0	1352	0.474534769655	2
0	1363	0.477644769655	3
0	1419	0.486110769655	2
0	1479	0.494120769655	3
0	1547	0.502586769655	2
0	1604	0.521776769655	3
0	1621	0.530242769655	2
0	1656	0.530743104603	3
0	1665	0.539209104603	2
0	1700	0.539529439551	3
0	1715	0.547995439551	2
0	1750	0.548275774499	3
0	1769	0.556741774499	2
0	1856	0.566098109447	3
0	1876	0.574564109447	2
0	1923	0.574954109447	3
0	1947	0.583420109447	2
0	2029	0.592548444395	3
0	2067	0.601014444395	2
0	2179	0.613779112907	3
0	2235	0.622245112907	2
0	2246	0.627795112907	3
0	2306	0.636261112907	2
0	2376	0.645831112907	3
0	2422	0.654297112907	2
0	2482	0.657687112907	3
0	2528	0.666153112907	2
0	2549	0.685623112907	3
0	2558	0.694089112907	2
0	2593	0.694369447855	3
0	2602	0.702835447855	2
0	2694	0.712171782803	3
0	2731	0.720637782803	2
0	2808	0.730002451315	3
0	2829	0.738468451315	2
0	2886	0.739898451315	3
0	2943	0.748364451315	2
0	2961	0.750574451315	3
0	3010	0.759040451315	2
0	3021	0.763710451315	3
0	3036	0.772176451315	2
0	3071	0.772516786263	3
0	3088	0.780982786263	2
0	3171	0.790359121211	3
0	3191	0.798825121211	2
0	3286	0.808349789723	3
0	3307	0.816815789723	2
0	3363	0.818245789723	3
0	3417	0.826711789723	2
0	3435	0.829561789723	3
0	3480	0.838027789723	2
0	3491	0.843537789723	3
0	3506	0.852003789723	2
0	3541	0.852664124671	3
0	3550	0.861130124671	2
0	3680	0.878871793875	3
0	3712	0.887337793875	2
0	3768	0.888687793875	3
0	3814	0.897153793875	2
0	3835	0.897703793875	3
0	3881	0.906169793875	2
0	3903	0.910499793875	3
0	3952	0.918965793875	2
0	3964	0.926375793875	3
0	3974	0.934841793875	2
0	4063	0.944118128823	3
0	4104	0.952584128823	2
0	4141	0.953034128823	3
0	4190	0.961500128823	2
0	4201	0.962010128823	3
0	4213	0.970476128823	2
0	4248	0.971076463771	3
0	4259	0.979542463771	2
0	4392	0.997404132975	3
0	4421	1.005870132975	2
0	4477	1.007000132975	3
0	4523	1.015466132975	2
0	4545	1.016416132975	3
0	4594	1.024882132975	2
0	4616	1.025572132975	3
0	4659	1.034038132975	2
0	4680	1.041188132975	3
0	4695	1.049654132975	2
0	4779	1.058750467923	3
0	4799	1.067216467923	2
0	4849	1.067786467923	3
0	4873	1.076252467923	2
0	4918	1.076962467923	3
0	4930	1.085428467923	2
0	4965	1.085888802871	3
0	4977	1.094354802871	2
0	5073	1.103571137819	3
0	5106	1.112037137819	2
0	5192	1.121781806331	3
0	5226	1.130247806331	2
0	5261	1.131857806331	3
0	5317	1.140323806331	2
0	5328	1.143953806331	3
0	5373	1.152419806331	2
0	5384	1.153249806331	3
0	5394	1.161715806331	2
0	5479	1.170892141279	3
0	5499	1.179358141279	2
0	5556	1.180888141279	3
0	5611	1.189354141279	2
0	5625	1.190864141279	3
0	5639	1.199330141279	2
0	5723	1.208346476227	3
0	5744	1.216812476227	2
0	5799	1.217442476227	3
0	5838	1.225908476227	2
0	5862	1.227898476227	3
0	5878	1.236364476227	2
0	5913	1.236784811175	3
0	5926	1.245250811175	2
0	5961	1.245531146123	3
0	5976	1.253997146123	2
0	6011	1.254497481071	3
0	6026	1.262963481071	2
0	6109	1.272279816019	3
0	6133	1.280745816019	2
0	6251	1.290650484531	3
0	6317	1.299116484531	2
0	6330	1.300326484531	3
0	6384	1.308792484531	2
0	6400	1.314182484531	3
0	6453	1.322648484531	2
0	6514	1.331978484531	3
0	6582	1.340444484531	2
0	6593	1.342914484531	3
0	6661	1.351380484531	2
0	6808	1.372050484531	3
0	6821	1.380516484531	2
0	6891	1.389812819479	3
0	6923	1.398278819479	2
0	6979	1.399748819479	3
0	7023	1.408214819479	2
0	7037	1.409044819479	3
0	7046	1.417510819479	2
0	7120	1.426647154427	3
0	7152	1.435113154427	2
0	7198	1.436123154427	3
0	7218	1.444589154427	2
0	7264	1.445399154427	3
0	7283	1.453865154427	2
0	7323	1.454585489375	3
0	7356	1.463051489375	2
0	7391	1.463401489375	3
0	7411	1.471867489375	2
0	7469	1.473877489375	3
0	7518	1.482343489375	2
0	7530	1.485033489375	3
0	7541	1.493499489375	2
0	7576	1.493979824323	3
0	7593	1.502445824323	2
0	7628	1.503026159271	3
0	7639	1.511492159271	2
0	7709	1.520448494219	3
0	7754	1.528914494219	2
0	7810	1.530204494219	3
0	7869	1.538670494219	2
0	7883	1.540500494219	3
0	7936	1.548966494219	2
0	7947	1.551936494219	3
0	8003	1.560402494219	2
0	8110	1.575561831243	3
0	8169	1.584027831243	2
0	8180	1.587057831243	3
0	8229	1.595523831243	2
0	8242	1.609473831243	3
0	8263	1.617939831243	2
0	8302	1.618320166191	3
0	8315	1.626786166191	2
0	8350	1.627226501139	3
0	8361	1.635692501139	2
0	8396	1.636112836087	3
0	8415	1.644578836087	2
0	8498	1.653775171035	3
0	8522	1.662241171035	2
0	8578	1.663131171035	3
0	8614	1.671597171035	2
0	8699	1.681721839547	3
0	8757	1.690187839547	2
0	8770	1.692617839547	3
0	8825	1.701083839547	2
0	8836	1.702193839547	3
0	8893	1.710659839547	2
0	9008	1.726399176571	3
0	9062	1.734865176571	2
0	9154	1.751755176571	3
0	9169	1.760221176571	2
0	9208	1.760541511519	3
0	9219	1.769007511519	2
0	9315	1.778303846467	3
0	9348	1.786769846467	2
0	9384	1.788119846467	3
0	9437	1.796585846467	2
0	9451	1.797535846467	3
0	9502	1.806001846467	2
0	9514	1.810871846467	3
0	9573	1.819337846467	2
0	9584	1.820207846467	3
0	9628	1.828673846467	2
0	9640	1.829463846467	3
0	9654	1.837929846467	2
0	9689	1.838330181415	3
0	9703	1.846796181415	2
0	9773	1.855892516363	3
0	9810	1.864358516363	2
0	9866	1.865308516363	3
0	9925	1.873774516363	2
0	9937	1.874424516363	3
0	9993	1.882890516363	2
0	10010	1.884880516363	3
0	10065	1.893346516363	2
0	10110	1.900136516363	3
0	10125	1.908602516363	2
0	10160	1.908962851311	3
0	10175	1.917428851311	2
0	10210	1.917989186259	3
0	10221	1.926455186259	2
0	10256	1.926755521207	3
0	10267	1.935221521207	2
0	10337	1.944197856155	3
0	10382	1.952663856155	2
0	10415	1.953033856155	3
0	10453	1.961499856155	2
0	10549	1.971053858923	3
0	10570	1.979519858923	2
0	10629	1.983169858923	3
0	10675	1.991635858923	2
0	10686	1.993825858923	3
0	10752	2.002291858923	2
0	10808	2.010221858923	3
0	10873	2.018687858923	2
0	10939	2.032457858923	3
0	10976	2.040923858923	2
0	11032	2.045853858923	3
0	11089	2.054319858923	2
0	11100	2.054769858923	3
0	11158	2.063235858923	2
0	11169	2.063605858923	3
0	11224	2.072071858923	2
0	11235	2.072661858923	3
0	11280	2.081127858923	2
0	11292	2.082957858923	3
0	11313	2.091423858923	2
0	11392	2.100520193871	3
0	11416	2.108986193871	2
0	11465	2.109876193871	3
0	11485	2.118342193871	2
0	11530	2.118752193871	3
0	11548	2.127218193871	2
0	11640	2.136634528819	3
0	11663	2.145100528819	2
0	11719	2.146110528819	3
0	11763	2.154576528819	2
0	11777	2.156486528819	3
0	11788	2.164952528819	2
0	11823	2.165452863767	3
0	11832	2.173918863767	2
0	11913	2.183115198715	3
0	11937	2.191581198715	2
0	11984	2.192171198715	3
0	12004	2.200637198715	2
0	12134	2.220101533663	3
0	12187	2.228567533663	2
0	12200	2.229957533663	3
0	12244	2.238423533663	2
0	12256	2.240973533663	3
0	12270	2.249439533663	2
0	12305	2.249799868611	3
0	12317	2.258265868611	2
0	12352	2.258646203559	3
0	12369	2.267112203559	2
0	12442	2.276248538507	3
0	12484	2.284714538507	2
0	12567	2.293919207019	3
0	12603	2.302385207019	2
0	12661	2.304055207019	3
0	12716	2.312521207019	2
0	12732	2.317531207019	3
0	12791	2.325997207019	2
0	12802	2.328447207019	3
0	12834	2.336913207019	2
0	12941	2.349583207019	3
0	12996	2.358049207019	2
0	13048	2.376839207019	3
0	13063	2.385305207019	2
0	13134	2.394601541967	3
0	13172	2.403067541967	2
0	13205	2.403797541967	3
0	13246	2.412263541967	2
0	13257	2.412733541967	3
0	13303	2.421199541967	2
0	13316	2.423529541967	3
0	13329	2.431995541967	2
0	13369	2.432635876915	3
0	13394	2.441101876915	2
0	13440	2.442531876915	3
0	13493	2.450997876915	2
0	13507	2.453527876915	3
0	13555	2.461993876915	2
0	13566	2.465143876915	3
0	13577	2.473609876915	2
0	13669	2.482866211863	3
0	13705	2.491332211863	2
0	13739	2.492442211863	3
0	13783	2.500908211863	2
0	13797	2.502758211863	3
0	13811	2.511224211863	2
0	13885	2.520400546811	3
0	13920	2.528866546811	2
0	13975	2.530076546811	3
0	14020	2.538542546811	2
0	14034	2.540132546811	3
0	14045	2.548598546811	2
0	14127	2.557814881759	3
0	14151	2.566280881759	2
0	14206	2.567510881759	3
0	14251	2.575976881759	2
0	14263	2.576446881759	3
0	14274	2.584912881759	2
0	14365	2.594229216707	3
0	14404	2.602695216707	2
0	14437	2.603665216707	3
0	14482	2.612131216707	2
0	14499	2.614721216707	3
0	14513	2.623187216707	2
0	14602	2.632563551655	3
0	14635	2.641029551655	2
0	14668	2.641479551655	3
0	14700	2.649945551655	2
0	14733	2.652135551655	3
0	14748	2.660601551655	2
0	14783	2.661001886603	3
0	14792	2.669467886603	2
0	14873	2.678584221551	3
0	14900	2.687050221551	2
0	14985	2.695994890063	3
0	15028	2.704460890063	2
0	15061	2.705150890063	3
0	15097	2.713616890063	2
0	15158	2.718686890063	3
0	15204	2.727152890063	2
0	15216	2.735262890063	3
0	15229	2.743728890063	2
0	15297	2.753065225011	3
0	15329	2.761531225011	2
0	15362	2.762321225011	3
0	15395	2.770787225011	2
0	15452	2.773497225011	3
0	15467	2.781963225011	2
0	15556	2.791199559959	3
0	15589	2.799665559959	2
0	15624	2.801195559959	3
0	15677	2.809661559959	2
0	15690	2.812151559959	3
0	15707	2.820617559959	2
0	15796	2.829993894907	3
0	15841	2.838459894907	2
0	15864	2.839929894907	3
0	15908	2.848395894907	2
0	15920	2.849185894907	3
0	15930	2.857651894907	2
0	15965	2.858012229855	3
0	15978	2.866478229855	2
0	16013	2.866818564803	3
0	16027	2.875284564803	2
0	16119	2.884660899751	3
0	16147	2.893126899751	2
0	16207	2.894396899751	3
0	16264	2.902862899751	2
0	16278	2.903792899751	3
0	16331	2.912258899751	2
0	16346	2.916608899751	3
0	16402	2.925074899751	2
0	16508	2.942894236775	3
0	16572	2.951360236775	2
0	16583	2.953910236775	3
0	16640	2.962376236775	2
0	16656	2.980786236775	3
0	16665	2.989252236775	2
0	16733	2.998488571723	3
0	16776	3.006954571723	2
0	16833	3.008544571723	3
0	16883	3.017010571723	2
0	16896	3.018660571723	3
0	16907	3.027126571723	2
0	16975	3.036022906671	3
0	17013	3.044488906671	2
0	17058	3.045018906671	3
0	17079	3.053484906671	2
0	17091	3.053914906671	3
0	17136	3.062380906671	2
0	17148	3.063210906671	3
0	17162	3.071676906671	2
0	17197	3.072177241619	3
0	17210	3.080643241619	2
0	17280	3.089559576567	3
0	17316	3.098025576567	2
0	17373	3.099515576567	3
0	17431	3.107981576567	2
0	17445	3.109691576567	3
0	17500	3.118157576567	2
0	17514	3.123027576567	3
0	17572	3.131493576567	2
0	17583	3.132063576567	3
0	17627	3.140529576567	2
0	17644	3.151619576567	3
0	17656	3.160085576567	2
0	17694	3.160685911515	3
0	17706	3.169151911515	2
0	17787	3.178228246463	3
0	17811	3.186694246463	2
0	17868	3.188184246463	3
0	17928	3.196650246463	2
0	17940	3.197140246463	3
0	17992	3.205606246463	2
0	18005	3.210936246463	3
0	18063	3.219402246463	2
0	18112	3.227652246463	3
0	18133	3.236118246463	2
0	18204	3.245414581411	3
0	18251	3.253880581411	2
0	18284	3.254550581411	3
0	18323	3.263016581411	2
0	18358	3.263726581411	3
0	18380	3.272192581411	2
0	18418	3.272632916359	3
0	18430	3.281098916359	2
0	18513	3.290455251307	3
0	18533	3.298921251307	2
0	18640	3.308905919819	3
0	18703	3.317371919819	2
0	18716	3.319241919819	3
0	18748	3.327707919819	2
0	18759	3.330117919819	3
0	18814	3.338583919819	2
0	18883	3.345853919819	3
0	18937	3.354319919819	2
0	18956	3.365569919819	3
0	18968	3.374035919819	2
0	19003	3.374316254767	3
0	19015	3.382782254767	2
0	19050	3.383062589715	3
0	19067	3.391528589715	2
0	19143	3.400824924663	3
0	19176	3.409290924663	2
0	19209	3.409700924663	3
0	19249	3.418166924663	2
0	19307	3.420656924663	3
0	19364	3.429122924663	2
0	19375	3.433172924663	3
0	19431	3.441638924663	2
0	19442	3.442548924663	3
0	19500	3.451014924663	2
0	19558	3.455684924663	3
0	19589	3.464150924663	2
0	19700	3.483980924663	3
0	19745	3.492446924663	2
0	19756	3.493676924663	3
0	19769	3.502142924663	2
0	19850	3.511539259611	3
0	19876	3.520005259611	2
0	19888	3.520375259611	3
0	19945	3.528841259611	2
0	19996	3.530791259611	3
0	20009	3.539257259611	2
0	20079	3.548453594559	3
0	20111	3.556919594559	2
0	20157	3.557709594559	3
0	20177	3.566175594559	2
0	20228	3.568005594559	3
0	20242	3.576471594559	2
0	20322	3.585467929507	3
0	20343	3.593933929507	2
0	20398	3.594983929507	3
0	20449	3.603449929507	2
0	20466	3.606339929507	3
0	20480	3.614805929507	2
0	20551	3.624182264455	3
0	20583	3.632648264455	2
0	20639	3.634198264455	3
0	20684	3.642664264455	2
0	20697	3.645334264455	3
0	20708	3.653800264455	2
0	20791	3.662916599403	3
0	20811	3.671382599403	2
0	20857	3.672332599403	3
0	20880	3.680798599403	2
0	20926	3.681488599403	3
0	20937	3.689954599403	2
0	21011	3.698930934351	3
0	21043	3.707396934351	2
0	21099	3.708966934351	3
0	21144	3.717432934351	2
0	21157	3.717902934351	3
0	21169	3.726368934351	2
0	21204	3.726749269299	3
0	21215	3.735215269299	2
0	21285	3.744391604247	3
0	21321	3.752857604247	2
0	21368	3.753787604247	3
0	21391	3.762253604247	2
0	21524	3.782017939195	3
0	21577	3.790483939195	2
0	21590	3.791473939195	3
0	21634	3.799939939195	2
0	21649	3.804989939195	3
0	21660	3.813455939195	2
0	21695	3.813996274143	3
0	21707	3.822462274143	2
0	21793	3.831838609091	3
0	21813	3.840304609091	2
0	21918	3.850329277603	3
0	21976	3.858795277603	2
0	21989	3.860745277603	3
0	22047	3.869211277603	2
0	22058	3.874321277603	3
0	22106	3.882787277603	2
0	22117	3.884117277603	3
0	22127	3.892583277603	2
0	22163	3.892883612551	3
0	22172	3.901349612551	2
0	22207	3.901869947499	3
0	22221	3.910335947499	2
0	22256	3.910676282447	3
0	22267	3.919142282447	2
0	22396	3.937063951651	3
0	22417	3.945529951651	2
0	22474	3.946579951651	3
0	22526	3.955045951651	2
0	22549	3.955935951651	3
0	22604	3.964401951651	2
0	22618	3.967111951651	3
0	22678	3.975577951651	2
0	22689	3.980607951651	3
0	22751	3.989073951651	2
0	22863	4.000823951651	3
0	22918	4.009289951651	2
0	23017	4.029519951651	3
0	23028	4.037985951651	2
0	23108	4.047382286599	3
0	23137	4.055848286599	2
0	23170	4.056198286599	3
0	23209	4.064664286599	2
0	23257	4.067534286599	3
0	23269	4.076000286599	2
0	23304	4.076300621547	3
0	23316	4.084766621547	2
0	23351	4.085126956495	3
0	23362	4.093592956495	2
0	23397	4.093993291443	3
0	23408	4.102459291443	2
0	23478	4.111615626391	3
0	23511	4.120081626391	2
0	23556	4.120791626391	3
0	23576	4.129257626391	2
0	23683	4.138711629159	3
0	23717	4.147177629159	2
0	23757	4.150327629159	3
0	23830	4.158793629159	2
0	23841	4.159903629159	3
0	23905	4.168369629159	2
0	23942	4.175959629159	3
0	24001	4.184425629159	2
0	24054	4.192895629159	3
0	24112	4.201361629159	2
0	24171	4.213711629159	3
0	24229	4.222177629159	2
0	24240	4.222667629159	3
0	24284	4.231133629159	2
0	24296	4.232223629159	3
0	24309	4.240689629159	2
0	24344	4.240969964107	3
0	24354	4.249435964107	2
0	24389	4.250116299055	3
0	24400	4.258582299055	2
0	24481	4.267678634003	3
0	24502	4.276144634003	2
0	24558	4.277334634003	3
0	24613	4.285800634003	2
0	24627	4.288230634003	3
0	24686	4.296696634003	2
0	24697	4.300486634003	3
0	24750	4.308952634003	2
0	24764	4.311682634003	3
0	24823	4.320148634003	2
0	24879	4.328718634003	3
0	24938	4.337184634003	2
0	24984	4.345074634003	3
0	24996	4.353540634003	2
0	25085	4.362896968951	3
0	25130	4.371362968951	2
0	25151	4.371872968951	3
0	25186	4.380338968951	2
0	25209	4.382968968951	3
0	25224	4.391434968951	2
0	25316	4.400731303899	3
0	25349	4.409197303899	2
0	25382	4.409687303899	3
0	25430	4.418153303899	2
0	25444	4.420663303899	3
0	25455	4.429129303899	2
0	25534	4.438145638847	3
0	25555	4.446611638847	2
0	25610	4.447861638847	3
0	25658	4.456327638847	2
0	25672	4.459097638847	3
0	25683	4.467563638847	2
0	25765	4.476739973795	3
0	25786	4.485205973795	2
0	25841	4.486195973795	3
0	25892	4.494661973795	2
0	25906	4.497511973795	3
0	25917	4.505977973795	2
0	25952	4.506478308743	3
0	25961	4.514944308743	2
0	26053	4.524180643691	3
0	26086	4.532646643691	2
0	26174	4.542471312203	3
0	26237	4.550937312203	2
0	26256	4.552707312203	3
0	26292	4.561173312203	2
0	26303	4.562783312203	3
0	26361	4.571249312203	2
0	26410	4.577739312203	3
0	26430	4.586205312203	2
0	26477	4.592015312203	3
0	26495	4.600481312203	2
0	26566	4.609517647151	3
0	26604	4.617983647151	2
0	26628	4.618613647151	3
0	26672	4.627079647151	2
0	26708	4.628009647151	3
0	26731	4.636475647151	2
0	26817	4.645671982099	3
0	26837	4.654137982099	2
0	26894	4.655547982099	3
0	26937	4.664013982099	2
0	26951	4.665543982099	3
0	26964	4.674009982099	2
0	27033	4.683286317047	3
0	27065	4.691752317047	2
0	27120	4.692242317047	3
0	27155	4.700708317047	2
0	27179	4.703438317047	3
0	27194	4.711904317047	2
0	27229	4.712224651995	3
0	27241	4.720690651995	2
0	27276	4.721050986943	3
0	27287	4.729516986943	2
0	27373	4.738833321891	3
0	27393	4.747299321891	2
0	27426	4.747729321891	3
0	27460	4.756195321891	2
0	27515	4.757185321891	3
0	27551	4.765651321891	2
0	27639	4.778826658915	3
0	27695	4.787292658915	2
0	27749	4.795962658915	3
0	27806	4.804428658915	2
0	27817	4.806718658915	3
0	27872	4.815184658915	2
0	27977	4.832334658915	3
0	27994	4.840800658915	2
0	28029	4.841420993863	3
0	28044	4.849886993863	2
0	28185	4.867768663067	3
0	28209	4.876234663067	2
0	28242	4.876944663067	3
0	28276	4.885410663067	2
0	28333	4.886740663067	3
0	28375	4.895206663067	2
0	28389	4.896456663067	3
0	28449	4.904922663067	2
0	28505	4.912932663067	3
0	28550	4.921398663067	2
0	28563	4.929908663067	3
0	28574	4.938374663067	2
0	28660	4.947490998015	3
0	28680	4.955956998015	2
0	28735	4.956846998015	3
0	28773	4.965312998015	2
0	28797	4.967382998015	3
0	28809	4.975848998015	2
0	28844	4.976329332963	3
0	28856	4.984795332963	2
0	28932	4.993811667911	3
0	28973	5.002277667911	2
0	29072	5.012282336423	3
0	29095	5.020748336423	2
0	29152	5.023638336423	3
0	29208	5.032104336423	2
0	29222	5.035254336423	3
0	29267	5.043720336423	2
0	29279	5.049930336423	3
0	29292	5.058396336423	2
0	29327	5.059156671371	3
0	29339	5.067622671371	2
0	29460	5.085444340575	3
0	29492	5.093910340575	2
0	29539	5.094600340575	3
0	29562	5.103066340575	2
0	29619	5.104376340575	3
0	29673	5.112842340575	2
0	29687	5.115632340575	3
0	29732	5.124098340575	2
0	29743	5.124888340575	3
0	29753	5.133354340575	2
0	29788	5.133654675523	3
0	29798	5.142120675523	2
0	29836	5.142521010471	3
0	29847	5.150987010471	2
0	29887	5.151687345419	3
0	29914	5.160153345419	2
0	29959	5.160863345419	3
0	29992	5.169329345419	2
0	30079	5.180414013931	3
0	30135	5.188880013931	2
0	30146	5.189250013931	3
0	30200	5.197716013931	2
0	30212	5.200366013931	3
0	30269	5.208832013931	2
0	30329	5.219282013931	3
0	30387	5.227748013931	2
0	30439	5.242278013931	3
0	30454	5.250744013931	2
0	30543	5.259980348879	3
0	30576	5.268446348879	2
0	30610	5.269616348879	3
0	30657	5.278082348879	2
0	30671	5.280332348879	3
0	30682	5.288798348879	2
0	30774	5.298134683827	3
0	30807	5.306600683827	2
0	30831	5.307050683827	3
0	30860	5.315516683827	2
0	30908	5.317426683827	3
0	30919	5.325892683827	2
0	30955	5.326573018775	3
0	30967	5.335039018775	2
0	31040	5.343935353723	3
0	31073	5.352401353723	2
0	31116	5.353251353723	3
0	31137	5.361717353723	2
0	31196	5.363847353723	3
0	31252	5.372313353723	2
0	31263	5.372843353723	3
0	31320	5.381309353723	2
0	31335	5.385859353723	3
0	31380	5.394325353723	2
0	31392	5.399775353723	3
0	31405	5.408241353723	2
0	31490	5.417497688671	3
0	31517	5.425963688671	2
0	31550	5.426413688671	3
0	31586	5.434879688671	2
0	31632	5.436209688671	3
0	31643	5.444675688671	2
0	31717	5.453952023619	3
0	31752	5.462418023619	2
0	31785	5.463268023619	3
0	31818	5.471734023619	2
0	31864	5.473064023619	3
0	31875	5.481530023619	2
0	31911	5.481950358567	3
0	31922	5.490416358567	2
0	31957	5.491116693515	3
0	31971	5.499582693515	2
0	32063	5.508879028463	3
0	32096	5.517345028463	2
0	32175	5.526249696975	3
0	32196	5.534715696975	2
0	32243	5.535205696975	3
0	32266	5.543671696975	2
0	32345	5.552560031923	3
0	32395	5.561026031923	2
0	32408	5.561616031923	3
0	32419	5.570082031923	2
0	32507	5.579398366871	3
0	32527	5.587864366871	2
0	32584	5.589214366871	3
0	32644	5.597680366871	2
0	32658	5.600050366871	3
0	32710	5.608516366871	2
0	32721	5.610306366871	3
0	32779	5.618772366871	2
0	32790	5.621282366871	3
0	32836	5.629748366871	2
0	32851	5.637298366871	3
0	32861	5.645764366871	2
0	32944	5.655180701819	3
0	32964	5.663646701819	2
0	33019	5.664576701819	3
0	33064	5.673042701819	2
0	33078	5.674912701819	3
0	33089	5.683378701819	2
0	33124	5.683859036767	3
0	33133	5.692325036767	2
0	33217	5.701421371715	3
0	33239	5.709887371715	2
0	33286	5.711057371715	3
0	33306	5.719523371715	2
0	33389	5.728251706663	3
0	33431	5.736717706663	2
0	33477	5.737287706663	3
0	33500	5.745753706663	2
0	33551	5.748703706663	3
0	33563	5.757169706663	2
0	33643	5.766446041611	3
0	33663	5.774912041611	2
0	33708	5.775342041611	3
0	33730	5.783808041611	2
0	33778	5.786458041611	3
0	33793	5.794924041611	2
0	33873	5.804260376559	3
0	33893	5.812726376559	2
0	33926	5.813256376559	3
0	33959	5.821722376559	2
0	34006	5.823092376559	3
0	34016	5.831558376559	2
0	34105	5.840854711507	3
0	34125	5.849320711507	2
0	34185	5.850850711507	3
0	34232	5.859316711507	2
0	34246	5.860306711507	3
0	34256	5.868772711507	2
0	34291	5.869053046455	3
0	34304	5.877519046455	2
0	34387	5.886875381403	3
0	34407	5.895341381403	2
0	34502	5.904746049915	3
0	34523	5.913212049915	2
0	34580	5.915262049915	3
0	34639	5.923728049915	2
0	34650	5.928358049915	3
0	34698	5.936824049915	2
0	34709	5.937414049915	3
0	34719	5.945880049915	2
0	34791	5.955256384863	3
0	34823	5.963722384863	2
0	34878	5.964912384863	3
0	34935	5.973378384863	2
0	34947	5.973848384863	3
0	34967	5.982314384863	2
0	35040	5.991390719811	3
0	35072	5.999856719811	2
0	35136	6.001406719811	3
0	35184	6.009872719811	2
0	35197	6.011642719811	3
0	35208	6.020108719811	2
0	35243	6.020449054759	3
0	35255	6.028915054759	2
0	35325	6.038071389707	3
0	35361	6.046537389707	2
0	35471	6.056482058219	3
0	35518	6.064948058219	2
0	35540	6.066958058219	3
0	35595	6.075424058219	2
0	35609	6.079814058219	3
0	35657	6.088280058219	2
0	35668	6.091950058219	3
0	35679	6.100416058219	2
0	35750	6.109812393167	3
0	35782	6.118278393167	2
0	35828	6.119508393167	3
0	35854	6.127974393167	2
0	35900	6.128784393167	3
0	35911	6.137250393167	2
0	35982	6.146566728115	3
0	36014	6.155032728115	2
0	36070	6.156582728115	3
0	36115	6.165048728115	2
0	36128	6.166698728115	3
0	36139	6.175164728115	2
0	36225	6.184561063063	3
0	36251	6.193027063063	2
0	36308	6.194597063063	3
0	36355	6.203063063063	2
0	36368	6.205033063063	3
0	36379	6.213499063063	2
0	36414	6.213839398011	3
0	36423	6.222305398011	2
0	36509	6.231721732959	3
0	36529	6.240187732959	2
0	36627	6.249772401471	3
0	36654	6.258238401471	2
0	36710	6.259048401471	3
0	36734	6.267514401471	2
0	36755	6.268284401471	3
0	36814	6.276750401471	2
0	36844	6.285560401471	3
0	36867	6.294026401471	2
0	36974	6.309836401471	3
0	37019	6.318302401471	2
0	37032	6.330132401471	3
0	37041	6.338598401471	2
0	37076	6.339018736419	3
0	37089	6.347484736419	2
0	37124	6.347905071367	3
0	37135	6.356371071367	2
0	37205	6.365607406315	3
0	37241	6.374073406315	2
0	37273	6.374483406315	3
0	37312	6.382949406315	2
0	37396	6.392483409083	3
0	37436	6.400949409083	2
0	37491	6.401619409083	3
0	37524	6.410085409083	2
0	37564	6.417495409083	3
0	37623	6.425961409083	2
0	37634	6.426431409083	3
0	37688	6.434897409083	2
0	37741	6.439567409083	3
0	37756	6.448033409083	2
0	37838	6.457309744031	3
0	37859	6.465775744031	2
0	37905	6.466545744031	3
0	37925	6.475011744031	2
0	37971	6.475781744031	3
0	37982	6.484247744031	2
0	38018	6.485028078979	3
0	38034	6.493494078979	2
0	38123	6.502710413927	3
0	38141	6.503400413927	2
0	38155	6.503490413927	3
0	38166	6.504148413927	2
0	38180	6.504298413927	3
0	38189	6.504956413927	2
0	38203	6.505526413927	3
0	38219	6.506184413927	2
0	38234	6.506514413927	3
0	38251	6.507172413927	2
0	38295	6.508211414619	3
0	38304	6.508869414619	2
0	39468	9.452191749304	3
0	39477	9.452849749304	2
0	40487	9.478821535347	3
0	40496	9.479039535347	2
0	40507	9.479609535347	3
0	40518	9.488075535347	2
0	40610	9.497350536039	3
0	40643	9.505816536039	2
0	40667	9.506426536039	3
0	40687	9.514892536039	2
0	40755	9.515671536731	3
0	40777	9.524137536731	2
0	40884	9.533352537423	3
0	40936	9.541818537423	2
0	40971	9.542297538115	3
0	40982	9.550763538115	2
0	41017	9.551562538807	3
0	41037	9.560028538807	2
0	41072	9.560427539499	3
0	41083	9.568893539499	2
0	41175	9.578248540191	3
0	41216	9.586714540191	2
0	41341	9.604544542959	3
0	41363	9.613010542959	2
0	41454	9.622295211471	3
0	41489	9.630761211471	2
0	41548	9.632551211471	3
0	41585	9.641017211471	2
0	41645	9.651107211471	3
0	41701	9.659573211471	2
0	41940	9.705844217699	3
0	42000	9.714310217699	2
0	42065	9.722920217699	3
0	42122	9.731386217699	2
0	42184	9.743576217699	3
0	42225	9.752042217699	2
0	42240	9.752472217699	3
0	42303	9.760938217699	2
0	42319	9.762148217699	3
0	42373	9.770614217699	2
0	42388	9.771084217699	3
0	42445	9.779550217699	2
0	42501	9.784700217699	3
0	42559	9.793166217699	2
0	42575	9.796676217699	3
0	42636	9.805142217699	2
0	42686	9.818492217699	3
0	42697	9.826958217699	2
0	42765	9.836273218391	3
0	42798	9.844739218391	2
0	42843	9.845329218391	3
0	42870	9.853795218391	2
0	42926	9.854314219083	3
0	42951	9.862780219083	2
0	42986	9.863239219775	3
0	42998	9.871705219775	2
0	43033	9.872464220467	3
0	43044	9.880930220467	2
0	43114	9.889885221159	3
0	43150	9.898351221159	2
0	43197	9.899021221159	3
0	43217	9.907487221159	2
0	43283	9.908126221851	3
0	43298	9.916592221851	2
0	43333	9.917311222543	3
0	43348	9.925777222543	2
0	43431	9.935112223235	3
0	43454	9.943578223235	2
0	43510	9.944788223235	3
0	43558	9.953254223235	2
0	43680	9.972786558183	3
0	43736	9.981252558183	2
0	43747	9.983242558183	3
0	43808	9.991708558183	2
0	44011	10.018214560951	3
0	44059	10.026680560951	2
0	44182	10.047087561643	3
0	44230	10.055553561643	2
0	44404	10.082511230847	3
0	44437	10.090977230847	2
0	44757	10.140385899359	3
0	44813	10.148851899359	2
0	44846	10.149310900051	3
0	44892	10.157776900051	2
0	44927	10.158555900743	3
0	44941	10.167021900743	2
0	44976	10.167460901435	3
0	44987	10.175926901435	2
0	45057	10.185021902127	3
0	45093	10.193487902127	2
0	45126	10.194117902127	3
0	45165	10.202583902127	2
0	45211	10.203473902127	3
0	45223	10.211939902127	2
0	45258	10.212278902819	3
0	45270	10.220744902819	2
0	45305	10.221203903511	3
0	45316	10.229669903511	2
0	45351	10.230568904203	3
0	45365	10.239034904203	2
0	45400	10.239473904895	3
0	45411	10.247939904895	2
0	45446	10.248418905587	3
0	45466	10.256884905587	2
0	45501	10.257203906279	3
0	45515	10.265669906279	2
0	45550	10.266308906971	3
0	45561	10.274774906971	2
0	45596	10.275453907663	3
0	45607	10.283919907663	2
0	45642	10.284698908355	3
0	45656	10.293164908355	2
0	45692	10.294063909047	3
0	45702	10.302529909047	2
0	45738	10.303188909739	3
0	45748	10.311654909739	2
0	45784	10.312553910431	3
0	45794	10.321019910431	2
0	45831	10.321918911123	3
0	45843	10.330384911123	2
0	45879	10.331203911815	3
0	45892	10.339669911815	2
0	45930	10.340208912507	3
0	45944	10.348674912507	2
0	45979	10.349393913199	3
0	45990	10.357859913199	2
0	46025	10.358638913891	3
0	46036	10.367104913891	2
0	46071	10.367723914583	3
0	46082	10.376189914583	2
0	46117	10.376768915275	3
0	46131	10.385234915275	2
0	46166	10.385653915967	3
0	46180	10.394119915967	2
0	46215	10.394838916659	3
0	46232	10.403304916659	2
0	46267	10.404063917351	3
0	46281	10.412529917351	2
0	46316	10.413288918043	3
0	46327	10.421754918043	2
0	46411	10.430809918735	3
0	46435	10.439275918735	2
0	46491	10.440445918735	3
0	46542	10.448911918735	2
0	46616	10.458978919427	3
0	46669	10.467444919427	2
0	46682	10.471174919427	3
0	46727	10.479640919427	2
0	46850	10.506113254375	3
0	46906	10.514579254375	2
0	46964	10.518209254375	3
0	46998	10.526675254375	2
0	47071	10.540945254375	3
0	47129	10.549411254375	2
0	47672	10.637651594859	3
0	47731	10.646117594859	2
0	47742	10.646987594859	3
0	47799	10.655453594859	2
0	47814	10.656883594859	3
0	47871	10.665349594859	2
0	47886	10.667739594859	3
0	47941	10.676205594859	2
0	48056	10.689448267523	3
0	48105	10.697914267523	2
0	48322	10.733905604547	3
0	48370	10.742371604547	2
0	48398	10.747281604547	3
0	48454	10.755747604547	2
0	48511	10.763197604547	3
0	48570	10.771663604547	2
0	48584	10.773833604547	3
0	48639	10.782299604547	2
0	48650	10.783249604547	3
0	48697	10.791715604547	2
0	48768	10.801162605239	3
0	48816	10.809628605239	2
0	48839	10.811458605239	3
0	48887	10.819924605239	2
0	48955	10.830911605931	3
0	49013	10.839377605931	2
0	49024	10.841847605931	3
0	49069	10.850313605931	2
0	49243	10.885805940879	3
0	49301	10.894271940879	2
0	49459	10.913883277903	3
0	49514	10.922349277903	2
0	49647	10.940909946415	3
0	49678	10.949375946415	2
0	49691	10.950345946415	3
0	49749	10.958811946415	2
0	49760	10.959281946415	3
0	49821	10.967747946415	2
0	49833	10.969897946415	3
0	49891	10.978363946415	2
0	49902	10.979273946415	3
0	49946	10.987739946415	2
0	50144	11.015437615619	3
0	50190	11.023903615619	2
0	50528	11.077336286899	3
0	50554	11.085802286899	2
0	50859	11.130422958179	3
0	50915	11.138888958179	2
0	50926	11.139278958179	3
0	50971	11.147744958179	2
0	50993	11.148374958179	3
0	51039	11.156840958179	2
0	51060	11.157210958179	3
0	51106	11.165676958179	2
0	51129	11.166966958179	3
0	51190	11.175432958179	2
0	51205	11.178782958179	3
0	51267	11.187248958179	2
0	51301	11.194918958179	3
0	51361	11.203384958179	2
0	51372	11.205394958179	3
0	51443	11.213860958179	2
0	51722	11.258234632919	3
0	51777	11.266700632919	2
0	51813	11.267219633611	3
0	51856	11.275685633611	2
0	51891	11.276224634303	3
0	51902	11.284690634303	2
0	51937	11.285489634995	3
0	51948	11.293955634995	2
0	51983	11.294354635687	3
0	51997	11.302820635687	2
0	52032	11.303619636379	3
0	52046	11.312085636379	2
0	52082	11.312984637071	3
0	52095	11.321450637071	2
0	52131	11.322089637763	3
0	52144	11.330555637763	2
0	52179	11.331054638455	3
0	52190	11.339520638455	2
0	52225	11.339999639147	3
0	52236	11.348465639147	2
0	52271	11.349324639839	3
0	52282	11.357790639839	2
0	52318	11.358569640531	3
0	52328	11.367035640531	2
0	52363	11.367734641223	3
0	52386	11.376200641223	2
0	52421	11.376819641915	3
0	52435	11.385285641915	2
0	52508	11.394460642607	3
0	52541	11.402926642607	2
0	52574	11.403356642607	3
0	52610	11.411822642607	2
0	52792	11.440097979631	3
0	52828	11.448563979631	2
0	52839	11.449033979631	3
0	52895	11.457499979631	2
0	53102	11.492644650911	3
0	53164	11.501110650911	2
0	53486	11.555813657139	3
0	53515	11.564279657139	2
0	53617	11.573254657831	3
0	53672	11.581720657831	2
0	53684	11.582490657831	3
0	53738	11.590956657831	2
0	53890	11.609439658523	3
0	53945	11.617905658523	2
0	53969	11.621635658523	3
0	53994	11.630101658523	2
0	54052	11.632451658523	3
0	54108	11.640917658523	2
0	54174	11.655447658523	3
0	54233	11.663913658523	2
0	54339	11.677883658523	3
0	54392	11.686349658523	2
0	54499	11.705319658523	3
0	54555	11.713785658523	2
0	54571	11.714375658523	3
0	54624	11.722841658523	2
0	54639	11.723291658523	3
0	54693	11.731757658523	2
0	54706	11.732887658523	3
0	54750	11.741353658523	2
0	54825	11.753440659215	3
0	54883	11.761906659215	2
0	54977	11.777187327727	3
0	55000	11.785653327727	2
0	55206	11.820600664751	3
0	55274	11.829066664751	2
0	55700	11.895499338799	3
0	55756	11.903965338799	2
0	55818	11.917275338799	3
0	55874	11.925741338799	2
0	55885	11.926531338799	3
0	55940	11.934997338799	2
0	55951	11.935487338799	3
0	55984	11.943953338799	2
0	55996	11.946163338799	3
0	56051	11.954629338799	2
0	56159	11.967395344335	3
0	56215	11.975861344335	2
0	56271	11.982351344335	3
0	56304	11.990817344335	2
0	56449	12.017147347103	3
0	56507	12.025613347103	2
0	56688	12.050655349871	3
0	56743	12.059121349871	2
0	56799	12.067931349871	3
0	56855	12.076397349871	2
0	56866	12.077147349871	3
0	56923	12.085613349871	2
0	56935	12.087203349871	3
0	56993	12.095669349871	2
0	57004	12.096099349871	3
0	57064	12.104565349871	2
0	57121	12.109775349871	3
0	57170	12.118241349871	2
0	57181	12.119591349871	3
0	57191	12.128057349871	2
0	57227	12.128856350563	3
0	57239	12.137322350563	2
0	57322	12.146437351255	3
0	57342	12.154903351255	2
0	57438	12.164308019767	3
0	57464	12.172774019767	2
0	57521	12.174824019767	3
0	57576	12.183290019767	2
0	57588	12.188320019767	3
0	57633	12.196786019767	2
0	57644	12.200016019767	3
0	57655	12.208482019767	2
0	57737	12.217757020459	3
0	57764	12.226223020459	2
0	57810	12.226853020459	3
0	57830	12.235319020459	2
0	57886	12.235778021151	3
0	57908	12.244244021151	2
0	57992	12.253599021843	3
0	58018	12.262065021843	2
0	58065	12.262955021843	3
0	58088	12.271421021843	2
0	58191	12.280776022535	3
0	58235	12.289242022535	2
0	58270	12.289541023227	3
0	58287	12.298007023227	2
0	58322	12.298506023919	3
0	58336	12.306972023919	2
0	58371	12.307731024611	3
0	58382	12.316197024611	2
0	58500	12.334137359559	3
0	58539	12.342603359559	2
0	58596	12.343953359559	3
0	58651	12.352419359559	2
0	58665	12.353369359559	3
0	58719	12.361835359559	2
0	58731	12.364225359559	3
0	58776	12.372691359559	2
0	58899	12.395243694507	3
0	58964	12.403709694507	2
0	59174	12.443821031531	3
0	59233	12.452287031531	2
0	59329	12.465577031531	3
0	59386	12.474043031531	2
0	59446	12.483413031531	3
0	59503	12.491879031531	2
0	59514	12.492289031531	3
0	59549	12.500755031531	2
0	59560	12.501145031531	3
0	59616	12.509611031531	2
0	59627	12.510161031531	3
0	59686	12.518627031531	2
0	59697	12.519077031531	3
0	59730	12.527543031531	2
0	59787	12.537293031531	3
0	59846	12.545759031531	2
0	59903	12.557829031531	3
0	59951	12.566295031531	2
0	59963	12.575645031531	3
0	59973	12.584111031531	2
0	60008	12.584390032223	3
0	60017	12.592856032223	2
0	60052	12.593695032915	3
0	60063	12.602161032915	2
0	60155	12.611456033607	3
0	60188	12.619922033607	2
0	60277	12.629326702119	3
0	60313	12.637792702119	2
0	60428	12.648499702811	3
0	60486	12.656965702811	2
0	60501	12.659575702811	3
0	60549	12.668041702811	2
0	60616	12.685348703503	3
0	60680	12.693814703503	2
0	60726	12.699624703503	3
0	60738	12.708090703503	2
0	60773	12.708529704195	3
0	60782	12.716995704195	2
0	60858	12.726170704887	3
0	60894	12.734636704887	2
0	60939	12.735626704887	3
0	60960	12.744092704887	2
0	60993	12.744411705579	3
0	61038	12.752877705579	2
0	61073	12.753276706271	3
0	61084	12.761742706271	2
0	61157	12.770877706963	3
0	61190	12.779343706963	2
0	61237	12.780473706963	3
0	61260	12.788939706963	2
0	61328	12.789338707655	3
0	61355	12.797804707655	2
0	61388	12.798283708347	3
0	61437	12.806749708347	2
0	61474	12.807348709039	3
0	61494	12.815814709039	2
0	61546	12.816204709039	3
0	61575	12.824670709039	2
0	61669	12.835415377551	3
0	61723	12.843881377551	2
0	61735	12.844671377551	3
0	61792	12.853137377551	2
0	61804	12.854707377551	3
0	61849	12.863173377551	2
0	62120	12.908856381011	3
0	62176	12.917322381011	2
0	62195	12.920992381011	3
0	62250	12.929458381011	2
0	62413	12.955045718035	3
0	62468	12.963511718035	2
0	62479	12.964381718035	3
0	62526	12.972847718035	2
0	62634	12.990960052983	3
0	62654	12.999426052983	2
0	62701	12.999876052983	3
0	62732	13.008342052983	2
0	62787	13.009072052983	3
0	62826	13.017538052983	2
0	62860	13.018108052983	3
0	62902	13.026574052983	2
0	62935	13.036984052983	3
0	62947	13.045450052983	2
0	63021	13.054605053675	3
0	63054	13.063071053675	2
0	63114	13.064541053675	3
0	63158	13.073007053675	2
0	63231	13.084014054367	3
0	63286	13.092480054367	2
0	63300	13.095790054367	3
0	63354	13.104256054367	2
0	63368	13.108766054367	3
0	63382	13.117232054367	2
0	63417	13.117511055059	3
0	63426	13.125977055059	2
0	63515	13.135272055751	3
0	63538	13.143738055751	2
0	63642	13.153482724263	3
0	63695	13.161948724263	2
0	63716	13.162838724263	3
0	63773	13.171304724263	2
0	63785	13.171734724263	3
0	63832	13.180200724263	2
0	63848	13.184590724263	3
0	63859	13.193056724263	2
0	63942	13.202111724955	3
0	63965	13.210577724955	2
0	63977	13.210967724955	3
0	64033	13.219433724955	2
0	64080	13.221383724955	3
0	64093	13.229849724955	2
0	64166	13.239024725647	3
0	64199	13.247490725647	2
0	64246	13.248060725647	3
0	64266	13.256526725647	2
0	64384	13.265921726339	3
0	64406	13.274387726339	2
0	64453	13.274817726339	3
0	64473	13.283283726339	2
0	64529	13.283582727031	3
0	64565	13.292048727031	2
0	64669	13.301023727723	3
0	64727	13.309489727723	2
0	64760	13.309788728415	3
0	64804	13.318254728415	2
0	64839	13.319053729107	3
0	64853	13.327519729107	2
0	64926	13.336694729799	3
0	64959	13.345160729799	2
0	65006	13.345870729799	3
0	65026	13.354336729799	2
0	65092	13.354955730491	3
0	65104	13.363421730491	2
0	65139	13.363840731183	3
0	65157	13.372306731183	2
0	65192	13.372805731875	3
0	65203	13.381271731875	2
0	65238	13.381970732567	3
0	65249	13.390436732567	2
0	65285	13.391295733259	3
0	65295	13.399761733259	2
0	65330	13.400320733951	3
0	65344	13.408786733951	2
0	65379	13.409065734643	3
0	65390	13.417531734643	2
0	65479	13.426706735335	3
0	65505	13.435172735335	2
0	65663	13.453822738103	3
0	65718	13.462288738103	2
0	65732	13.464818738103	3
0	65765	13.473284738103	2
0	65776	13.474914738103	3
0	65838	13.483380738103	2
0	65930	13.501834740871	3
0	65992	13.510300740871	2
0	66206	13.544656077895	3
0	66262	13.553122077895	2
0	66324	13.568812077895	3
0	66360	13.577278077895	2
0	66641	13.616905417687	3
0	66697	13.625371417687	2
0	66708	13.626061417687	3
0	66763	13.634527417687	2
0	66774	13.634997417687	3
0	66833	13.643463417687	2
0	66845	13.645853417687	3
0	66903	13.654319417687	2
0	66985	13.667988088967	3
0	67032	13.676454088967	2
0	67070	13.676813089659	3
0	67095	13.685279089659	2
0	67148	13.685969089659	3
0	67205	13.694435089659	2
0	67219	13.696365089659	3
0	67261	13.704831089659	2
0	67272	13.708821089659	3
0	67343	13.717287089659	2
0	67354	13.720117089659	3
0	67411	13.728583089659	2
0	67425	13.730293089659	3
0	67484	13.738759089659	2
0	67600	13.750963096579	3
0	67658	13.759429096579	2
0	67722	13.773959096579	3
0	67777	13.782425096579	2
0	67788	13.782995096579	3
0	67845	13.791461096579	2
0	67882	13.792691096579	3
0	67915	13.801157096579	2
0	68015	13.810152097271	3
0	68070	13.818618097271	2
0	68103	13.819077097963	3
0	68160	13.827543097963	2
0	68193	13.827822098655	3
0	68253	13.836288098655	2
0	68286	13.836947099347	3
0	68333	13.845413099347	2
0	68406	13.854628100039	3
0	68448	13.863094100039	2
0	68505	13.864664100039	3
0	68549	13.873130100039	2
0	68634	13.883717100731	3
0	68681	13.892183100731	2
0	68703	13.892953100731	3
0	68750	13.901419100731	2
0	68886	13.926791435679	3
0	68945	13.935257435679	2
0	69005	13.940247435679	3
0	69064	13.948713435679	2
0	69288	13.985725773395	3
0	69333	13.994191773395	2
0	69605	14.040700111111	3
0	69660	14.049166111111	2
0	69671	14.050136111111	3
0	69729	14.058602111111	2
0	69741	14.059772111111	3
0	69796	14.068238111111	2
0	69808	14.069368111111	3
0	69865	14.077834111111	2
0	69877	14.078924111111	3
0	69931	14.087390111111	2
0	69943	14.088420111111	3
0	69997	14.096886111111	2
0	70053	14.104136111111	3
0	70065	14.112602111111	2
0	70100	14.113181111803	3
0	70109	14.121647111803	2
0	70204	14.131062112495	3
0	70237	14.139528112495	2
0	70325	14.149472781007	3
0	70381	14.157938781007	2
0	70395	14.160628781007	3
0	70432	14.169094781007	2
0	70449	14.172904781007	3
0	70510	14.181370781007	2
0	70566	14.189580781007	3
0	70618	14.198046781007	2
0	70637	14.208976781007	3
0	70646	14.217442781007	2
0	70717	14.226357781699	3
0	70750	14.234823781699	2
0	70761	14.235253781699	3
0	70816	14.243719781699	2
0	70937	14.254684450211	3
0	70948	14.263150450211	2
0	70988	14.263909450903	3
0	70998	14.272375450903	2
0	71034	14.273274451595	3
0	71047	14.281740451595	2
0	71083	14.282379452287	3
0	71102	14.290845452287	2
0	71236	14.308685787235	3
0	71256	14.317151787235	2
0	71307	14.317861787235	3
0	71327	14.326327787235	2
0	71405	14.327126787927	3
0	71439	14.335592787927	2
0	71503	14.344449456439	3
0	71541	14.352915456439	2
0	71602	14.354785456439	3
0	71659	14.363251456439	2
0	71672	14.367461456439	3
0	71730	14.375927456439	2
0	71841	14.394228794847	3
0	71899	14.402694794847	2
0	72155	14.448806131871	3
0	72213	14.457272131871	2
0	72320	14.474402131871	3
0	72375	14.482868131871	2
0	72424	14.499418131871	3
0	72436	14.507884131871	2
0	72471	14.508383132563	3
0	72480	14.516849132563	2
0	72550	14.525844133255	3
0	72586	14.534310133255	2
0	72694	14.544294801767	3
0	72750	14.552760801767	2
0	72764	14.555310801767	3
0	72803	14.563776801767	2
0	72814	14.565066801767	3
0	72868	14.573532801767	2
0	72954	14.588736138791	3
0	72988	14.597202138791	2
0	73049	14.599532138791	3
0	73105	14.607998138791	2
0	73116	14.610068138791	3
0	73164	14.618534138791	2
0	73238	14.634061139483	3
0	73296	14.642527139483	2
0	73307	14.642917139483	3
0	73351	14.651383139483	2
0	73362	14.652233139483	3
0	73373	14.660699139483	2
0	73442	14.669854140175	3
0	73481	14.678320140175	2
0	73537	14.679510140175	3
0	73572	14.687976140175	2
0	73633	14.697443140867	3
0	73677	14.705909140867	2
0	73712	14.706228141559	3
0	73726	14.714694141559	2
0	73796	14.723829142251	3
0	73829	14.732295142251	2
0	73862	14.733185142251	3
0	73895	14.741651142251	2
0	73942	14.742741142251	3
0	73960	14.751207142251	2
0	73995	14.751646142943	3
0	74007	14.760112142943	2
0	74042	14.760791143635	3
0	74053	14.769257143635	2
0	74088	14.769676144327	3
0	74102	14.778142144327	2
0	74140	14.778581145019	3
0	74163	14.787047145019	2
0	74198	14.787946145711	3
0	74209	14.796412145711	2
0	74246	14.797291146403	3
0	74255	14.805757146403	2
0	74291	14.806536147095	3
0	74304	14.815002147095	2
0	74339	14.815421147787	3
0	74351	14.823887147787	2
0	74386	14.824266148479	3
0	74397	14.832732148479	2
0	74432	14.833171149171	3
0	74443	14.841637149171	2
0	74478	14.842296149863	3
0	74492	14.850762149863	2
0	74527	14.851521150555	3
0	74547	14.859987150555	2
0	74582	14.860346151247	3
0	74596	14.868812151247	2
0	74631	14.869451151939	3
0	74642	14.877917151939	2
0	74734	14.887112152631	3
0	74767	14.895578152631	2
0	74841	14.904642821143	3
0	74862	14.913108821143	2
0	74918	14.914238821143	3
0	74967	14.922704821143	2
0	75103	14.943977156091	3
0	75170	14.952443156091	2
0	75184	14.957213156091	3
0	75241	14.965679156091	2
0	75448	14.995751827371	3
0	75515	15.004217827371	2
0	75572	15.013927827371	3
0	75628	15.022393827371	2
0	75747	15.046230165087	3
0	75803	15.054696165087	2
0	75814	15.055546165087	3
0	75849	15.064012165087	2
0	75861	15.064702165087	3
0	75922	15.073168165087	2
0	75934	15.074178165087	3
0	75966	15.082644165087	2
0	76185	15.113591502111	3
0	76211	15.122057502111	2
0	76368	15.144019504879	3
0	76424	15.152485504879	2
0	76684	15.200931510415	3
0	76740	15.209397510415	2
0	76937	15.238312847439	3
0	76960	15.246778847439	2
0	77019	15.249568847439	3
0	77076	15.258034847439	2
0	77087	15.258724847439	3
0	77144	15.267190847439	2
0	77156	15.268360847439	3
0	77219	15.276826847439	2
0	77231	15.279216847439	3
0	77286	15.287682847439	2
0	77297	15.289252847439	3
0	77352	15.297718847439	2
0	77510	15.322470523563	3
0	77569	15.330936523563	2
0	77603	15.331215524255	3
0	77656	15.339681524255	2
0	77761	15.348776524947	3
0	77819	15.357242524947	2
0	77852	15.357981525639	3
0	77912	15.366447525639	2
0	78020	15.375602526331	3
0	78075	15.384068526331	2
0	78108	15.384907527023	3
0	78165	15.393373527023	2
0	78198	15.393912527715	3
0	78242	15.402378527715	2
0	78277	15.402957528407	3
0	78288	15.411423528407	2
0	78323	15.411962529099	3
0	78334	15.420428529099	2
0	78369	15.420887529791	3
0	78383	15.429353529791	2
0	78418	15.430112530483	3
0	78430	15.438578530483	2
0	78465	15.439277531175	3
0	78477	15.447743531175	2
0	78512	15.448062531867	3
0	78526	15.456528531867	2
0	78596	15.465843532559	3
0	78632	15.474309532559	2
0	78691	15.475379532559	3
0	78732	15.483845532559	2
0	78757	15.485455532559	3
0	78768	15.493921532559	2
0	78804	15.494260533251	3
0	78813	15.502726533251	2
0	78848	15.503445533943	3
0	78862	15.511911533943	2
0	78897	15.512310534635	3
0	78908	15.520776534635	2
0	78943	15.521615535327	3
0	78954	15.530081535327	2
0	78992	15.530700536019	3
0	79006	15.539166536019	2
0	79041	15.540065536711	3
0	79058	15.548531536711	2
0	79093	15.548850537403	3
0	79107	15.557316537403	2
0	79142	15.557775538095	3
0	79156	15.566241538095	2
0	79191	15.566640538787	3
0	79202	15.575106538787	2
0	79237	15.576005539479	3
0	79251	15.584471539479	2
0	79286	15.584910540171	3
0	79297	15.593376540171	2
0	79332	15.593755540863	3
0	79343	15.602221540863	2
0	79381	15.603020541555	3
0	79398	15.611486541555	2
0	79433	15.612025542247	3
0	79450	15.620491542247	2
0	79485	15.620950542939	3
0	79496	15.629416542939	2
0	79531	15.629815543631	3
0	79542	15.638281543631	2
0	79577	15.638740544323	3
0	79588	15.647206544323	2
0	79623	15.647825545015	3
0	79634	15.656291545015	2
0	79669	15.656670545707	3
0	79680	15.665136545707	2
0	79715	15.665975546399	3
0	79726	15.674441546399	2
0	79761	15.674980547091	3
0	79772	15.683446547091	2
0	79807	15.683725547783	3
0	79821	15.692191547783	2
0	79856	15.692650548475	3
0	79876	15.701116548475	2
0	79914	15.701955549167	3
0	79925	15.710421549167	2
0	79960	15.710780549859	3
0	79971	15.719246549859	2
0	80006	15.719785550551	3
0	80020	15.728251550551	2
0	80055	15.728650551243	3
0	80066	15.737116551243	2
0	80101	15.737955551935	3
0	80115	15.746421551935	2
0	80150	15.747020552627	3
0	80167	15.755486552627	2
0	80202	15.755845553319	3
0	80219	15.764311553319	2
0	80254	15.764950554011	3
0	80268	15.773416554011	2
0	80303	15.773895554703	3
0	80317	15.782361554703	2
0	80352	15.782740555395	3
0	80366	15.791206555395	2
0	80401	15.792025556087	3
0	80415	15.800491556087	2
0	80498	15.809686556779	3
0	80518	15.818152556779	2
0	80551	15.818582556779	3
0	80584	15.827048556779	2
0	80780	15.854283893803	3
0	80801	15.862749893803	2
0	80860	15.865559893803	3
0	80920	15.874025893803	2
0	80931	15.877475893803	3
0	80986	15.885941893803	2
0	81446	15.954097233595	3
0	81506	15.962563233595	2
0	81620	15.980573233595	3
0	81679	15.989039233595	2
0	81758	16.003989233595	3
0	81828	16.012455233595	2
0	81839	16.012925233595	3
0	81897	16.021391233595	2
0	81908	16.022021233595	3
0	81953	16.030487233595	2
0	81966	16.032737233595	3
0	81980	16.041203233595	2
0	82015	16.041522234287	3
0	82027	16.049988234287	2
0	82062	16.050747234979	3
0	82076	16.059213234979	2
0	82111	16.059692235671	3
0	82128	16.068158235671	2
0	82163	16.068917236363	3
0	82177	16.077383236363	2
0	82213	16.078282237055	3
0	82226	16.086748237055	2
0	82265	16.087567237747	3
0	82281	16.096033237747	2
0	82316	16.096632238439	3
0	82330	16.105098238439	2
0	82365	16.105437239131	3
0	82379	16.113903239131	2
0	82414	16.114542239823	3
0	82425	16.123008239823	2
0	82460	16.123487240515	3
0	82474	16.131953240515	2
0	82509	16.132532241207	3
0	82526	16.140998241207	2
0	82612	16.150333241899	3
0	82632	16.158799241899	2
0	82679	16.159369241899	3
0	82705	16.167835241899	2
0	82816	16.177110242591	3
0	82860	16.185576242591	2
0	82895	16.186115243283	3
0	82906	16.194581243283	2
0	83040	16.212501578231	3
0	83063	16.220967578231	2
0	83075	16.221437578231	3
0	83129	16.229903578231	2
0	83187	16.232773578231	3
0	83246	16.241239578231	2
0	83257	16.242509578231	3
0	83301	16.250975578231	2
0	83370	16.265722578923	3
0	83428	16.274188578923	2
0	83583	16.296945247435	3
0	83625	16.305411247435	2
0	83698	16.314646248127	3
0	83734	16.323112248127	2
0	83790	16.324142248127	3
0	83841	16.332608248127	2
0	83856	16.333538248127	3
0	83868	16.342004248127	2
0	83905	16.342723248819	3
0	83917	16.351189248819	2
0	83953	16.352028249511	3
0	83963	16.360494249511	2
0	84036	16.369629250203	3
0	84069	16.378095250203	2
0	84175	16.388119918715	3
0	84223	16.396585918715	2
0	84250	16.398875918715	3
0	84308	16.407341918715	2
0	84319	16.407731918715	3
0	84363	16.416197918715	2
0	84431	16.425744919407	3
0	84476	16.434210919407	2
0	84501	16.438460919407	3
0	84546	16.446926919407	2
0	84760	16.482669922867	3
0	84796	16.491135922867	2
0	85031	16.528553592071	3
0	85089	16.537019592071	2
0	85100	16.537889592071	3
0	85155	16.546355592071	2
0	85167	16.547425592071	3
0	85221	16.555891592071	2
0	85233	16.557221592071	3
0	85290	16.565687592071	2
0	85302	16.566297592071	3
0	85359	16.574763592071	2
0	85476	16.589099598991	3
0	85497	16.597565598991	2
0	85532	16.598024599683	3
0	85544	16.606490599683	2
0	85639	16.615805600375	3
0	85675	16.624271600375	2
0	85763	16.634156268887	3
0	85819	16.642622268887	2
0	85832	16.644072268887	3
0	85886	16.652538268887	2
0	85898	16.653648268887	3
0	85942	16.662114268887	2
0	86065	16.688486603835	3
0	86124	16.696952603835	2
0	86181	16.703922603835	3
0	86237	16.712388603835	2
0	86620	16.769992944319	3
0	86654	16.778458944319	2
0	86718	16.783388944319	3
0	86775	16.791854944319	2
0	86786	16.792424944319	3
0	86843	16.800890944319	2
0	86855	16.802240944319	3
0	86912	16.810706944319	2
0	86924	16.812576944319	3
0	86969	16.821042944319	2
0	87043	16.834329945011	3
0	87101	16.842795945011	2
0	87215	16.860236613523	3
0	87273	16.868702613523	2
0	87629	16.929585950547	3
0	87685	16.938051950547	2
0	88064	16.995016619059	3
0	88127	17.003482619059	2
0	88406	17.054371290339	3
0	88462	17.062837290339	2
0	88476	17.063587290339	3
0	88530	17.072053290339	2
0	88541	17.072783290339	3
0	88599	17.081249290339	2
0	88611	17.082659290339	3
0	88665	17.091125290339	2
0	88751	17.103695963003	3
0	88788	17.112161963003	2
0	88845	17.113511963003	3
0	88905	17.121977963003	2
0	88919	17.122887963003	3
0	88973	17.131353963003	2
0	89132	17.157526300719	3
0	89165	17.165992300719	2
0	89250	17.178714303487	3
0	89308	17.187180303487	2
0	89319	17.187590303487	3
0	89376	17.196056303487	2
0	89388	17.197606303487	3
0	89433	17.206072303487	2
0	89502	17.217419304179	3
0	89560	17.225885304179	2
0	89571	17.231175304179	3
0	89616	17.239641304179	2
0	89735	17.260713639127	3
0	89797	17.269179639127	2
0	89808	17.271589639127	3
0	89863	17.280055639127	2
0	89922	17.285105639127	3
0	89957	17.293571639127	2
0	90143	17.327529308331	3
0	90204	17.335995308331	2
0	90215	17.336465308331	3
0	90272	17.344931308331	2
0	90284	17.346001308331	3
0	90331	17.354467308331	2
0	90507	17.381724977535	3
0	90543	17.390190977535	2
0	90578	17.391100977535	3
0	90634	17.399566977535	2
0	90722	17.416776980303	3
0	90762	17.425242980303	2
0	90925	17.445467648815	3
0	90961	17.453933648815	2
0	90972	17.460103648815	3
0	91028	17.468569648815	2
0	91191	17.493536985839	3
0	91249	17.502002985839	2
0	91260	17.502912985839	3
0	91314	17.511378985839	2
0	91326	17.512348985839	3
0	91386	17.520814985839	2
0	91398	17.522244985839	3
0	91455	17.530710985839	2
0	91562	17.541939993451	3
0	91595	17.550405993451	2
0	91732	17.572115996219	3
0	91788	17.580581996219	2
0	91877	17.598434664731	3
0	91936	17.606900664731	2
0	92092	17.636230667499	3
0	92131	17.644696667499	2
0	92242	17.661494670267	3
0	92301	17.669960670267	2
0	92312	17.670310670267	3
0	92366	17.678776670267	2
0	92377	17.679526670267	3
0	92432	17.687992670267	2
0	92443	17.688642670267	3
0	92501	17.697108670267	2
0	92512	17.697638670267	3
0	92570	17.706104670267	2
0	92703	17.724485677879	3
0	92762	17.732951677879	2
0	92996	17.767226347775	3
0	93039	17.775692347775	2
0	93075	17.776211348467	3
0	93085	17.784677348467	2
0	93120	17.784956349159	3
0	93137	17.793422349159	2
0	93172	17.794281349851	3
0	93186	17.802747349851	2
0	93222	17.803486350543	3
0	93238	17.811952350543	2
0	93273	17.812291351235	3
0	93284	17.820757351235	2
0	93319	17.821356351927	3
0	93333	17.829822351927	2
0	93368	17.830721352619	3
0	93382	17.839187352619	2
0	93418	17.839946353311	3
0	93428	17.848412353311	2
0	93464	17.849191354003	3
0	93474	17.857657354003	2
0	93509	17.858036354695	3
0	93520	17.866502354695	2
0	93555	17.866781355387	3
0	93569	17.875247355387	2
0	93604	17.875946356079	3
0	93616	17.884412356079	2
0	93651	17.884951356771	3
0	93662	17.893417356771	2
0	93697	17.893896357463	3
0	93708	17.902362357463	2
0	93743	17.903061358155	3
0	93760	17.911527358155	2
0	93795	17.912266358847	3
0	93809	17.920732358847	2
0	93844	17.921331359539	3
0	93858	17.929797359539	2
0	93893	17.930416360231	3
0	93904	17.938882360231	2
0	93939	17.939641360923	3
0	93953	17.948107360923	2
0	93988	17.948506361615	3
0	93999	17.956972361615	2
0	94034	17.957271362307	3
0	94045	17.965737362307	2
0	94080	17.966416362999	3
0	94097	17.974882362999	2
0	94132	17.975341363691	3
0	94143	17.983807363691	2
0	94235	17.993222364383	3
0	94282	18.001688364383	2
0	94321	18.003298364383	3
0	94366	18.011764364383	2
0	94438	18.022231365075	3
0	94496	18.030697365075	2
0	94507	18.033647365075	3
0	94552	18.042113365075	2
0	94597	18.050740365767	3
0	94632	18.059206365767	2
0	94887	18.100037702791	3
0	94943	18.108503702791	2
0	95052	18.124453702791	3
0	95107	18.132919702791	2
0	95118	18.134449702791	3
0	95178	18.142915702791	2
0	95190	18.143425702791	3
0	95237	18.151891702791	2
0	95302	18.161018703483	3
0	95324	18.169484703483	2
0	95433	18.179689371995	3
0	95495	18.188155371995	2
0	95508	18.191645371995	3
0	95541	18.200111371995	2
0	95646	18.215273374763	3
0	95701	18.223739374763	2
0	95917	18.261410711787	3
0	95977	18.269876711787	2
0	96038	18.277586711787	3
0	96092	18.286052711787	2
0	96207	18.308048048811	3
0	96265	18.316514048811	2
0	96276	18.317484048811	3
0	96333	18.325950048811	2
0	96345	18.326640048811	3
0	96399	18.335106048811	2
0	96411	18.336396048811	3
0	96465	18.344862048811	2
0	96477	18.347432048811	3
0	96532	18.355898048811	2
0	96682	18.375136057115	3
0	96728	18.383602057115	2
0	96764	18.384501057807	3
0	96774	18.392967057807	2
0	96809	18.393506058499	3
0	96823	18.401972058499	2
0	96858	18.402731059191	3
0	96872	18.411197059191	2
0	96955	18.420612059883	3
0	96975	18.429078059883	2
0	97033	18.430628059883	3
0	97070	18.439094059883	2
0	97151	18.450141060575	3
0	97206	18.458607060575	2
0	97217	18.459477060575	3
0	97261	18.467943060575	2
0	97452	18.500640729779	3
0	97508	18.509106729779	2
0	97860	18.562670066803	3
0	97916	18.571136066803	2
0	98206	18.614884404519	3
0	98262	18.623350404519	2
0	98323	18.637260404519	3
0	98381	18.645726404519	2
0	98392	18.646656404519	3
0	98436	18.655122404519	2
0	98501	18.663989405211	3
0	98526	18.672455405211	2
0	98608	18.681780073723	3
0	98643	18.690246073723	2
0	98699	18.691496073723	3
0	98754	18.699962073723	2
0	98768	18.702272073723	3
0	98813	18.710738073723	2
0	99039	18.750661077183	3
0	99101	18.759127077183	2
0	99370	18.808415748463	3
0	99400	18.816881748463	2
0	99462	18.824111748463	3
0	99522	18.832577748463	2
0	99533	18.833047748463	3
0	99591	18.841513748463	2
0	99602	18.841963748463	3
0	99635	18.850429748463	2
0	99684	18.852839748463	3
0	99704	18.861305748463	2
0	99793	18.870391753999	3
0	99834	18.878857753999	2
0	99893	18.881727753999	3
0	99953	18.890193753999	2
0	99964	18.892883753999	3
0	100019	18.901349753999	2
0	100083	18.911699753999	3
0	100141	18.920165753999	2
0	100152	18.923155753999	3
0	100207	18.931621753999	2
0	100218	18.932111753999	3
0	100275	18.940577753999	2
0	100286	18.941267753999	3
0	100341	18.949733753999	2
0	100401	18.951823753999	3
0	100446	18.960289753999	2
0	100543	18.977902088947	3
0	100579	18.986368088947	2
0	100638	18.990358088947	3
0	100697	18.998824088947	2
0	100935	19.034696426663	3
0	100990	19.043162426663	2
0	101001	19.049052426663	3
0	101046	19.057518426663	2
0	101165	19.075805427355	3
0	101200	19.084271427355	2
0	101256	19.093018428047	3
0	101293	19.101484428047	2
0	101326	19.102254428047	3
0	101359	19.110720428047	2
0	101454	19.120545096559	3
0	101478	19.129011096559	2
0	101586	19.139715765071	3
0	101642	19.148181765071	2
0	101655	19.149291765071	3
0	101712	19.157757765071	2
0	101724	19.158847765071	3
0	101768	19.167313765071	2
0	101943	19.202771434275	3
0	101998	19.211237434275	2
0	102111	19.223778102787	3
0	102167	19.232244102787	2
0	102178	19.232654102787	3
0	102213	19.241120102787	2
0	102224	19.241570102787	3
0	102282	19.250036102787	2
0	102293	19.250966102787	3
0	102348	19.259432102787	2
0	102363	19.264422102787	3
0	102411	19.272888102787	2
0	102483	19.286335103479	3
0	102544	19.294801103479	2
0	102877	19.340909771991	3
0	102887	19.349375771991	2
0	102922	19.350134772683	3
0	102936	19.358600772683	2
0	102972	19.359439773375	3
0	102988	19.367905773375	2
0	103023	19.368484774067	3
0	103034	19.376950774067	2
0	103069	19.377349774759	3
0	103080	19.385815774759	2
0	103115	19.386454775451	3
0	103126	19.394920775451	2
0	103161	19.395539776143	3
0	103175	19.404005776143	2
0	103213	19.404884776835	3
0	103224	19.413350776835	2
0	103260	19.414049777527	3
0	103276	19.422515777527	2
0	103369	19.431850778219	3
0	103393	19.440316778219	2
0	103451	19.441886778219	3
0	103495	19.450352778219	2
0	103633	19.469645113167	3
0	103676	19.478111113167	2
0	103858	19.506228782371	3
0	103913	19.514694782371	2
0	103974	19.523584782371	3
0	104032	19.532050782371	2
0	104140	19.553096785139	3
0	104202	19.561562785139	2
0	104261	19.572912785139	3
0	104294	19.581378785139	2
0	104428	19.602570122163	3
0	104462	19.611036122163	2
0	104519	19.611906122163	3
0	104564	19.620372122163	2
0	104589	19.621922122163	3
0	104622	19.630388122163	2
0	104634	19.633138122163	3
0	104692	19.641604122163	2
0	104709	19.644674122163	3
0	104767	19.653140122163	2
0	104778	19.655790122163	3
0	104836	19.664256122163	2
0	105043	19.694389129775	3
0	105089	19.702855129775	2
0	105128	19.703514130467	3
0	105138	19.711980130467	2
0	105173	19.712519131159	3
0	105184	19.720985131159	2
0	105219	19.721464131851	3
0	105233	19.729930131851	2
0	105268	19.730789132543	3
0	105279	19.739255132543	2
0	105314	19.739674133235	3
0	105325	19.748140133235	2
0	105360	19.748519133927	3
0	105371	19.756985133927	2
0	105406	19.757444134619	3
0	105420	19.765910134619	2
0	105455	19.766689135311	3
0	105466	19.775155135311	2
0	105501	19.775594136003	3
0	105515	19.784060136003	2
0	105550	19.784879136695	3
0	105561	19.793345136695	2
0	105596	19.793644137387	3
0	105607	19.802110137387	2
0	105642	19.802509138079	3
0	105659	19.810975138079	2
0	105694	19.811814138771	3
0	105708	19.820280138771	2
0	105778	19.829355139463	3
0	105820	19.837821139463	2
0	105877	19.839371139463	3
0	105925	19.847837139463	2
0	105940	19.848427139463	3
0	105954	19.856893139463	2
0	105989	19.857192140155	3
0	106003	19.865658140155	2
0	106038	19.866217140847	3
0	106052	19.874683140847	2
0	106087	19.875302141539	3
0	106098	19.883768141539	2
0	106168	19.892863142231	3
0	106207	19.901329142231	2
0	106264	19.902779142231	3
0	106311	19.911245142231	2
0	106329	19.911755142231	3
0	106342	19.920221142231	2
0	106377	19.920600142923	3
0	106387	19.929066142923	2
0	106422	19.929865143615	3
0	106433	19.938331143615	2
0	106468	19.938610144307	3
[...]
99	25167	4.380255636079	107
99	25401	4.417889971027	108
99	25629	4.455484305975	109
99	25863	4.494398640923	110
99	26197	4.550385979331	111
99	26317	4.567799313587	112
99	26447	4.586560647843	113
99	26689	4.627936314279	114
99	26908	4.663430649227	115
99	27136	4.700684984175	116
99	27532	4.765618657531	117
99	27653	4.782911991787	118
99	27891	4.818923994555	119
99	27943	4.828148995247	120
99	28291	4.885747330195	121
99	28403	4.903560664451	122
99	28521	4.921101998707	123
99	28754	4.965169665143	124
99	29166	5.029721003551	125
99	29236	5.039006004243	126
99	29634	5.111948341959	127
99	29701	5.120953342651	128
99	30160	5.196012681059	129
99	30288	5.213515349571	130
99	30403	5.231776683827	131
99	30628	5.277699016007	132
99	30875	5.315713350955	133
99	31210	5.370939355107	134
99	31349	5.388940689363	135
99	31602	5.435436355799	136
99	31832	5.472030690747	137
99	32291	5.543888364103	138
99	32359	5.552913364795	139
99	32605	5.596697033999	140
99	32804	5.623523702511	141
99	33035	5.672599368947	142
99	33322	5.719600038843	143
99	33517	5.746150373791	144
99	33747	5.784464708739	145
99	33975	5.822179043687	146
99	34203	5.858513378635	147
99	34597	5.922124717043	148
99	34667	5.931469717735	149
99	34903	5.972675051991	150
99	35154	6.008989386939	151
99	35488	6.064716725347	152
99	35623	6.082618059603	153
99	35869	6.128051060295	154
99	36085	6.164505395243	155
99	36325	6.202339730191	156
99	36669	6.258347068599	157
99	36771	6.276040402855	158
99	36928	6.303277737111	159
99	36988	6.312462737803	160
99	37450	6.401158076211	161
99	37648	6.427564744723	162
99	37711	6.436669745415	163
99	37940	6.475048411159	164
99	38514	6.529304416695	165
99	38588	6.547697750951	166
99	38679	6.565579085207	167
99	40718	9.514970537423	168
99	40829	9.524526537423	169
99	40909	9.535742537423	170
99	41508	9.630931212855	171
99	41607	9.649044547111	172
99	41664	9.657990882059	173
99	42143	9.737440221851	174
99	42338	9.765797556107	175
99	42410	9.774823891055	176
99	42467	9.783650226003	177
99	42525	9.792556560951	178
99	42594	9.801602895899	179
99	42660	9.810709230847	180
99	42913	9.854113219775	181
99	43260	9.907865222543	182
99	43534	9.952592224619	183
99	43829	9.997751893823	184
99	43907	10.006927893823	185
99	43976	10.016623893823	186
99	44033	10.025490228771	187
99	44201	10.053727563027	188
99	44483	10.099831232231	189
99	44554	10.109167232231	190
99	44634	10.118103232231	191
99	44708	10.131279232231	192
99	44776	10.145175232231	193
99	44865	10.153981567179	194
99	45184	10.202761903511	195
99	46515	10.448109920119	196
99	46701	10.475378920811	197
99	46927	10.515453255759	198
99	47090	10.542470590015	199
99	47150	10.551436924963	200
99	47230	10.561392924963	201
99	47304	10.572428924963	202
99	47375	10.584424924963	203
99	47535	10.616608927731	204
99	47620	10.632144927731	205
99	47837	10.661768930499	206
99	47905	10.670715265447	207
99	47962	10.679461600395	208
99	48141	10.706568268907	209
99	48534	10.768896274443	210
99	48603	10.777922609391	211
99	48672	10.786948944339	212
99	48858	10.818162606623	213
99	49043	10.846851607315	214
99	49262	10.886205942263	215
99	49540	10.930383279287	216
99	49611	10.939439279287	217
99	49710	10.956592613543	218
99	49855	10.974473947799	219
99	49921	10.983800282747	220
99	50227	11.032797617003	221
99	50347	11.050400285515	222
99	50790	11.121073625307	223
99	50880	11.138306959563	224
99	50946	11.147253294511	225
99	51081	11.165374628767	226
99	51224	11.183255963023	227
99	51322	11.200449297279	228
99	51517	11.227455965791	229
99	51596	11.237191965791	230
99	51665	11.246867965791	231
99	51740	11.258923965791	232
99	51832	11.268030300739	233
99	52631	11.412320643991	234
99	53121	11.493360652295	235
99	53280	11.520139320807	236
99	53331	11.528945655755	237
99	53567	11.564769658523	238
99	53638	11.574605658523	239
99	53771	11.593546992779	240
99	53839	11.602362992779	241
99	53911	11.612878992779	242
99	54358	11.685962998315	243
99	54415	11.694769333263	244
99	54462	11.703855668211	245
99	54521	11.713042003159	246
99	54590	11.721928338107	247
99	54659	11.730714673055	248
99	54725	11.739461008003	249
99	54904	11.767980660599	250
99	55121	11.804013997623	251
99	55295	11.830660666135	252
99	55904	11.928650008695	253
99	56015	11.946683342951	254
99	56236	11.981995345719	255
99	56528	12.026032682743	256
99	56600	12.035148682743	257
99	56707	12.053271351255	258
99	56819	12.070852685511	259
99	56885	12.079859020459	260
99	56954	12.088705355407	261
99	57023	12.097571690355	262
99	57086	12.106318025303	263
99	57144	12.115364360251	264
99	57540	12.182028021151	265
99	57607	12.191094356099	266
99	57873	12.235737021843	267
99	58129	12.271679023227	268
99	58210	12.281635023227	269
99	58684	12.360602695199	270
99	58750	12.369569030147	271
99	58985	12.408643695891	272
99	59256	12.453421032915	273
99	59351	12.471134367171	274
99	59466	12.488875701427	275
99	59650	12.515813035683	276
99	59810	12.543890369939	277
99	59867	12.552736704887	278
99	59925	12.561563039835	279
99	60308	12.637782703503	280
99	60389	12.646878703503	281
99	60520	12.664560037759	282
99	60701	12.694888704887	283
99	61012	12.744590706271	284
99	61291	12.788957708347	285
99	61407	12.798373708347	286
99	61688	12.842431378935	287
99	61823	12.860692713191	288
99	62085	12.907812382395	289
99	62214	12.925453716651	290
99	62432	12.960845719419	291
99	62501	12.969612054367	292
99	62812	13.017505388623	293
99	62888	13.026511723571	294
99	63134	13.072625055059	295
99	63325	13.099574055751	296
99	63670	13.161638725647	297
99	63808	13.179360059903	298
99	64055	13.219931726339	299
99	64297	13.256604727031	300
99	64504	13.283361727723	301
99	64619	13.293457727723	302
99	64691	13.306953727723	303
99	64780	13.316020062671	304
99	65067	13.354614731183	305
99	65684	13.461998739487	306
99	65798	13.480212073743	307
99	66283	13.560381413535	308
99	66924	13.659021421839	309
99	67008	13.676017421839	310
99	67170	13.694065091043	311
99	67303	13.711998425299	312
99	67373	13.721364760247	313
99	67444	13.730451095195	314
99	67619	13.757219097963	315
99	67741	13.774740432219	316
99	67807	13.783626767167	317
99	67867	13.792593102115	318
99	67968	13.801539437063	319
99	68035	13.811155437063	320
99	68123	13.820161772011	321
99	68216	13.829228106959	322
99	68306	13.838414441907	323
99	68534	13.873008101423	324
99	68726	13.900957102115	325
99	69028	13.945596771319	326
99	69085	13.954663106267	327
99	69155	13.963879106267	328
99	69307	13.990825774779	329
99	69624	14.047536112495	330
99	69827	14.074242781007	331
99	69962	14.092064115263	332
99	70025	14.100830450211	333
99	70346	14.157368782391	334
99	70531	14.183966116647	335
99	70586	14.192872451595	336
99	70837	14.244737783083	337
99	70912	14.253693783083	338
99	71358	14.326505788619	339
99	71621	14.362329457823	340
99	71691	14.371075792771	341
99	71754	14.379922127719	342
99	71920	14.407228796231	343
99	72174	14.451646133255	344
99	72339	14.478432801767	345
99	72396	14.487799136715	346
99	72716	14.552490803151	347
99	72833	14.570704137407	348
99	73068	14.606476140175	349
99	73135	14.615622475123	350
99	73326	14.645861140867	351
99	73558	14.687954141559	352
99	73651	14.697750141559	353
99	73915	14.741989143635	354
99	74942	14.922202822527	355
99	75134	14.948973157475	356
99	75358	14.984905160243	357
99	75592	15.020317163011	358
99	75661	15.029563497959	359
99	75766	15.047546166471	360
99	75883	15.065639500727	361
99	75988	15.083392834983	362
99	76073	15.093728834983	363
99	76144	15.108724834983	364
99	77179	15.275648851591	365
99	77250	15.284675186539	366
99	77316	15.293741521487	367
99	77373	15.302847856435	368
99	77443	15.312503856435	369
99	77530	15.323379856435	370
99	77622	15.332666191383	371
99	77709	15.341712526331	372
99	77785	15.351608526331	373
99	77872	15.360714861279	374
99	77968	15.369761196227	375
99	78041	15.378637196227	376
99	78131	15.387423531175	377
99	78218	15.396169866123	378
99	78718	15.483803533943	379
99	80605	15.827566558163	380
99	81007	15.889234563699	381
99	81152	15.915742566467	382
99	81229	15.925258566467	383
99	81310	15.935814566467	384
99	81395	15.948370566467	385
99	81469	15.958706566467	386
99	81583	15.976699900723	387
99	81642	15.986066235671	388
99	81777	16.005207569927	389
99	81928	16.024208904183	390
99	82757	16.168213243283	391
99	82835	16.177729243283	392
99	83209	16.239566913871	393
99	83276	16.248873248819	394
99	83449	16.277542580307	395
99	83519	16.286938580307	396
99	83602	16.297494580307	397
99	83817	16.332066249511	398
99	84272	16.405179920099	399
99	84338	16.414166255047	400
99	84520	16.442684920791	401
99	84781	16.491025924251	402
99	85053	16.534993593455	403
99	85255	16.561600261967	404
99	85324	16.570686596915	405
99	85384	16.579692931863	406
99	85463	16.588988931863	407
99	85851	16.651056270271	408
99	85917	16.660222605219	409
99	86200	16.706331939475	410
99	86258	16.715078274423	411
99	86338	16.725094274423	412
99	86409	16.734410274423	413
99	86676	16.778688945703	414
99	86808	16.796410279959	415
99	86943	16.814171614215	416
99	87125	16.847689946395	417
99	87294	16.874516614907	418
99	87373	16.884472614907	419
99	87436	16.893728614907	420
99	87706	16.938905951931	421
99	87795	16.948261951931	422
99	87870	16.958097951931	423
99	87939	16.968993951931	424
99	88010	16.983829951931	425
99	88562	17.076996625979	426
99	88630	17.085742960927	427
99	88687	17.094769295875	428
99	88807	17.112391964387	429
99	88938	17.130313298643	430
99	88998	17.139339633591	431
99	89097	17.157042302103	432
99	89341	17.192314304871	433
99	89407	17.201180639819	434
99	89590	17.233319305563	435
99	89827	17.275473640511	436
99	89943	17.293374974767	437
99	90234	17.337989309715	438
99	90303	17.347255644663	439
99	90661	17.407910313175	440
99	90884	17.443423650199	441
99	91151	17.488052987223	442
99	91279	17.505734321479	443
99	91351	17.514540656427	444
99	91417	17.523546991375	445
99	91480	17.532413326323	446
99	91751	17.576831997603	447
99	92054	17.630166668883	448
99	92397	17.684480005907	449
99	92463	17.693646340855	450
99	92532	17.702832675803	451
99	92595	17.711579010751	452
99	92666	17.720415010751	453
99	92725	17.729601345699	454
99	92783	17.738407680647	455
99	92868	17.748083680647	456
99	92934	17.757399680647	457
99	93016	17.768135680647	458
99	94340	18.010362365767	459
99	94526	18.038751366459	460
99	94703	18.068680367151	461
99	95071	18.130588372687	462
99	95137	18.139574707635	463
99	95212	18.148801042583	464
99	95460	18.187805373379	465
99	95725	18.232113376147	466
99	96058	18.285196047427	467
99	96295	18.320748050195	468
99	96364	18.329554385143	469
99	96430	18.338840720091	470
99	96496	18.347607055039	471
99	96553	18.356673389987	472
99	96632	18.366449389987	473
99	96701	18.375925389987	474
99	97055	18.438872061267	475
99	97236	18.465861061959	476
99	97471	18.503395396907	477
99	97582	18.521496731163	478
99	97652	18.531092731163	479
99	97943	18.575890068187	480
99	97990	18.584876403135	481
99	98069	18.593972403135	482
99	98345	18.639689740159	483
99	98411	18.648756075107	484
99	98720	18.699380075107	485
99	98787	18.708186410055	486
99	99061	18.755417078567	487
99	99354	18.808291749847	488
99	99552	18.835098418359	489
99	100040	18.905562423895	490
99	100102	18.914888758843	491
99	100171	18.923835093791	492
99	100237	18.932941428739	493
99	100306	18.942247763687	494
99	100363	18.951114098635	495
99	100422	18.959960433583	496
99	100729	19.004487424587	497
99	100802	19.014023424587	498
99	100847	19.022909759535	499
99	101020	19.050196428047	500
99	101186	19.084045428739	501
99	101380	19.111198429431	502
99	101674	19.156055766455	503
99	101743	19.165062101403	504
99	102019	19.212211435659	505
99	102130	19.229934104171	506
99	102247	19.247547438427	507
99	102382	19.266168772683	508
99	102565	19.299795104863	509
99	102647	19.308951104863	510
99	102723	19.319627104863	511
99	102781	19.329443104863	512
99	102854	19.340599104863	513
99	103470	19.449630779603	514
99	103652	19.477779780295	515
99	103938	19.522488783755	516
99	104055	19.540350118011	517
99	104223	19.566876786523	518
99	104540	19.620170123547	519
99	104731	19.647287457803	520
99	104797	19.656533792751	521
99	104857	19.665340127699	522
99	104904	19.674586462647	523
99	104983	19.684562462647	524
99	105061	19.694498462647	525
99	105900	19.847555140847	526
99	106287	19.910203143615	527
100	11098	2.054619858923	1049
100	24238	4.222477629159	1049
100	42234	9.752342217699	1049
100	47740	10.646417594859	1049
100	48648	10.782599604547	1049
100	49689	10.949675946415	1049
100	50990	11.148044958179	1049
100	54568	11.714085658523	1049
100	55883	11.926041338799	1049
100	56864	12.076697349871	1049
100	59512	12.492179031531	1049
100	62477	12.963811718035	1049
100	66706	13.625671417687	1049
100	67786	13.782725096579	1049
100	69669	14.049466111111	1049
100	73305	14.642827139483	1049
100	75812	15.054996165087	1049
100	77085	15.258334847439	1049
100	81837	16.012755233595	1049
100	85098	16.537319592071	1049
100	86784	16.792154944319	1049
100	88474	17.063137290339	1049
100	89317	17.187480303487	1049
100	90213	17.336295308331	1049
100	91258	17.502302985839	1049
100	92310	17.670260670267	1049
100	95188	18.143215702791	1049
100	96274	18.316814048811	1049
100	98390	18.646026404519	1049
100	99531	18.832877748463	1049
100	100216	18.931921753999	1049
100	101229	19.084571427355	1049
100	102176	19.232544102787	1049
100	104489	19.611336122163	1049
101	12032	2.200814032625	1049
101	21420	3.762830438157	1049
101	23853	4.164747797325	1049
101	32294	5.543888530885	1049
101	32362	5.552913531577	1049
102	38407	6.511224580709	1049
102	40711	9.514970037077	1049
102	40822	9.524526037077	1049
102	40902	9.535742037077	1049
102	42906	9.854112719429	1049
102	43253	9.907864722197	1049
102	43890	10.006408727733	1049
102	43958	10.015564727733	1049
102	44537	10.108468066141	1049
102	44608	10.117644066141	1049
102	44680	10.126480066141	1049
102	44749	10.138196066141	1049
102	44858	10.153981066833	1049
102	47204	10.560053758873	1049
102	47276	10.569749758873	1049
102	47344	10.578905758873	1049
102	47407	10.589941758873	1049
102	47592	10.625185761641	1049
102	47654	10.634121761641	1049
102	49594	10.939060113197	1049
102	50339	11.050399785169	1049
102	50782	11.121073124961	1049
102	51570	11.236112799701	1049
102	51638	11.245128799701	1049
102	51712	11.254064799701	1049
102	51825	11.268029800393	1049
102	53272	11.520138820461	1049
102	53560	11.564769158177	1049
102	53631	11.574605158177	1049
102	53764	11.593546492433	1049
102	53832	11.602362492433	1049
102	53904	11.612878492433	1049
102	56583	12.034589516653	1049
102	57866	12.235736521497	1049
102	58122	12.271678522881	1049
102	58183	12.280346189317	1049
102	60372	12.646329869593	1049
102	61005	12.744590205925	1049
102	61284	12.788957208001	1049
102	61400	12.798373208001	1049
102	64290	13.256604226685	1049
102	64497	13.283361227377	1049
102	64612	13.293457227377	1049
102	64684	13.306953227377	1049
102	64773	13.316019562325	1049
102	65060	13.354614230837	1049
102	66977	13.667638255749	1049
102	67961	13.801538936717	1049
102	68028	13.811154936717	1049
102	68116	13.820161271665	1049
102	68209	13.829227606613	1049
102	68299	13.838413941561	1049
102	69138	13.963339940177	1049
102	70896	14.253374616993	1049
102	71351	14.326505288273	1049
102	73625	14.696593307649	1049
102	76044	15.092029668893	1049
102	76113	15.101485668893	1049
102	76176	15.111681668893	1049
102	77426	15.311524690345	1049
102	77501	15.321160690345	1049
102	77615	15.332665691037	1049
102	77702	15.341712025985	1049
102	77778	15.351608025985	1049
102	77865	15.360714360933	1049
102	77961	15.369760695881	1049
102	78034	15.378636695881	1049
102	78124	15.387423030829	1049
102	78211	15.396169365777	1049
102	81212	15.924319400377	1049
102	81290	15.933815400377	1049
102	81367	15.944411400377	1049
102	81438	15.953687400377	1049
102	82750	16.168212742937	1049
102	82828	16.177728742937	1049
102	83502	16.286139414217	1049
102	83573	16.295535414217	1049
102	85446	16.588269765773	1049
102	86311	16.723615108333	1049
102	86391	16.732791108333	1049
102	87347	16.883173448817	1049
102	87418	16.892749448817	1049
102	87765	16.947502785841	1049
102	87843	16.956378785841	1049
102	87911	16.965454785841	1049
102	87980	16.975890785841	1049
102	88042	16.987766785841	1049
102	92651	17.720175844661	1049
102	92842	17.746984514557	1049
102	92913	17.755980514557	1049
102	92984	17.765936514557	1049
102	96605	18.365210223897	1049
102	96674	18.374066223897	1049
102	97635	18.530173565073	1049
102	98052	18.593473237045	1049
102	100785	19.013164258497	1049
102	102621	19.308331938773	1049
102	102692	19.317247938773	1049
102	102763	19.327203938773	1049
102	102835	19.337999938773	1049
102	104966	19.683263296557	1049
102	105034	19.693099296557	1049
103	106784	0.1	0
103	106784	0.2	0
103	106784	0.3	0
103	106784	0.4	0
103	106784	0.5	0
103	106784	0.6	0
103	106784	0.7	0
103	106784	0.8	0
103	106784	0.9	0
103	106784	1	0
103	106784	1.1	0
103	106784	1.2	0
103	106784	1.3	0
103	106784	1.4	0
103	106784	1.5	0
103	106784	1.6	0
103	106784	1.7	0
103	106784	1.8	0
103	106784	1.9	0
103	106784	2	0
103	106784	2.1	0
103	106784	2.2	0
103	106784	2.3	0
103	106784	2.4	0
103	106784	2.5	0
103	106784	2.6	0
103	106784	2.7	0
103	106784	2.8	0
103	106784	2.9	0
103	106784	3	0
103	106784	3.1	0
103	106784	3.2	0
103	106784	3.3	0
103	106784	3.4	0
103	106784	3.5	0
103	106784	3.6	0
103	106784	3.7	0
103	106784	3.8	0
103	106784	3.9	0
103	106784	4	0
103	106784	4.1	0
103	106784	4.2	0
103	106784	4.3	0
103	106784	4.4	0
103	106784	4.5	0
103	106784	4.6	0
103	106784	4.7	0
103	106784	4.8	0
103	106784	4.9	0
103	106784	5	0
103	106784	5.1	0
103	106784	5.2	0
103	106784	5.3	0
103	106784	5.4	0
103	106784	5.5	0
103	106784	5.6	0
103	106784	5.7	0
103	106784	5.8	0
103	106784	5.9	0
103	106784	6	0
103	106784	6.1	0
103	106784	6.2	0
103	106784	6.3	0
103	106784	6.4	0
103	106784	6.5	0
103	106784	6.6	0
103	106784	6.7	0
103	106784	6.8	0
103	106784	6.9	0
103	106784	7	0
103	106784	7.1	0
103	106784	7.2	0
103	106784	7.3	0
103	106784	7.4	0
103	106784	7.5	0
103	106784	7.6	0
103	106784	7.7	0
103	106784	7.8	0
103	106784	7.9	0
103	106784	8	0
103	106784	8.1	0
103	106784	8.2	0
103	106784	8.3	0
103	106784	8.4	0
103	106784	8.5	0
103	106784	8.6	0
103	106784	8.7	0
103	106784	8.8	0
103	106784	8.9	0
103	106784	9	0
103	106784	9.1	0
103	106784	9.2	0
103	106784	9.3	0
103	106784	9.4	0
103	106784	9.5	0
103	106784	9.6	0
103	106784	9.7	0
103	106784	9.8	0
103	106784	9.9	0
103	106784	10	0
103	106784	10.1	0
103	106784	10.2	0
103	106784	10.3	0
103	106784	10.4	0
103	106784	10.5	0
103	106784	10.6	0
103	106784	10.7	0
103	106784	10.8	0
103	106784	10.9	0
103	106784	11	0
103	106784	11.1	0
103	106784	11.2	0
103	106784	11.3	0
103	106784	11.4	0
103	106784	11.5	0
103	106784	11.6	0
103	106784	11.7	0
103	106784	11.8	0
103	106784	11.9	0
103	106784	12	0
103	106784	12.1	0
103	106784	12.2	0
103	106784	12.3	0
103	106784	12.4	0
103	106784	12.5	0
103	106784	12.6	0
103	106784	12.7	0
103	106784	12.8	0
103	106784	12.9	0
103	106784	13	0
103	106784	13.1	0
103	106784	13.2	0
103	106784	13.3	0
103	106784	13.4	0
103	106784	13.5	0
103	106784	13.6	0
103	106784	13.7	0
103	106784	13.8	0
103	106784	13.9	0
103	106784	14	0
103	106784	14.1	0
103	106784	14.2	0
103	106784	14.3	0
103	106784	14.4	0
103	106784	14.5	0
103	106784	14.6	0
103	106784	14.7	0
103	106784	14.8	0
103	106784	14.9	0
103	106784	15	0
103	106784	15.1	0
103	106784	15.2	0
103	106784	15.3	0
103	106784	15.4	0
103	106784	15.5	0
103	106784	15.6	0
103	106784	15.7	0
103	106784	15.8	0
103	106784	15.9	0
103	106784	16	0
103	106784	16.1	0
103	106784	16.2	0
103	106784	16.3	0
103	106784	16.4	0
103	106784	16.5	0
103	106784	16.6	0
103	106784	16.7	0
103	106784	16.8	0
103	106784	16.9	0
103	106784	17	0
103	106784	17.1	0
103	106784	17.2	0
103	106784	17.3	0
103	106784	17.4	0
103	106784	17.5	0
103	106784	17.6	0
103	106784	17.7	0
103	106784	17.8	0
103	106784	17.9	0
103	106784	18	0
103	106784	18.1	0
103	106784	18.2	0
103	106784	18.3	0
103	106784	18.4	0
103	106784	18.5	0
103	106784	18.6	0
103	106784	18.7	0
103	106784	18.8	0
103	106784	18.9	0
103	106784	19	0
103	106784	19.1	0
103	106784	19.2	0
103	106784	19.3	0
103	106784	19.4	0
103	106784	19.5	0
103	106784	19.6	0
103	106784	19.7	0
103	106784	19.8	0
103	106784	19.9	0
103	106784	20	0

