version 2
run Wireless01-0-20220816-17:11:26-64048
attr configname Wireless01
attr datetime 20220816-17:11:26
attr experiment Wireless01
attr inifile omnetpp.ini
attr iterationvars ""
attr iterationvarsf ""
attr measurement ""
attr network Multihop
attr processid 64048
attr repetition 0
attr replication #0
attr resultdir results
attr runnumber 0
attr seedset 0
param *.host*.ipv4.arp.typename "\"GlobalArp\""
param *.host*.forwarding true
param *.configurator.optimizeRoutes false
param *.hostA.numApps 1
param *.hostA.app[0].typename "\"UdpBasicApp\""
param *.hostA.app[0].destAddresses "\"hostB\""
param *.hostA.app[0].destPort 5000
param *.hostA.app[0].messageLength 1000B
param *.hostA.app[0].sendInterval exponential(12ms)
param *.hostA.app[0].packetName "\"UDPData\""
param *.hostB.numApps 1
param *.hostB.app[0].typename "\"UdpSink\""
param *.hostB.app[0].localPort 5000
param *.host*.wlan[0].typename "\"WirelessInterface\""
param *.host*.wlan[0].radio.typename "\"UnitDiskRadio\""
param *.host*.wlan[0].radio.transmitter.communicationRange 300m
param *.host*.wlan[0].radio.transmitter.interferenceRange 500m
param *.host*.wlan[0].mac.typename "\"CsmaCaMac\""
param *.host*.wlan[0].mac.ackTimeout 300us
param *.host*.wlan[0].mac.useAck true
param *.host*.wlan[0].queue.typename "\"DropTailQueue\""
param *.host*.**.bitrate 1Mbps
param *.hostA.wlan[0].radio.displayCommunicationRange true
param *.hostC.wlan[0].radio.displayCommunicationRange true
param *.configurator.addStaticRoutes false
param *.host*.typename "\"AodvRouter\""
param *.host*.mobility.typename "\"StationaryMobility\""
param *.host*.mobility.initialZ 0.1m
param *.physicalEnvironment.config "xmldoc(\"mine.xml\")"
param *.radioMedium.obstacleLoss.typename "\"IdealObstacleLoss\""
param *.visualizer.sceneVisualizer.descriptionFigure "\"title\""
param *.visualizer.physicalLinkVisualizer.displayLinks true
param *.visualizer.physicalLinkVisualizer.packetFilter "\"UDPData*\""

vector 0 Multihop.hostA.wlan[0].radio radioMode:vector ETV
attr interpolationmode sample-hold
attr source radioModeChanged
attr title "Radio mode, vector"
vector 1 Multihop.hostB.wlan[0].radio radioMode:vector ETV
attr interpolationmode sample-hold
attr source radioModeChanged
attr title "Radio mode, vector"
vector 2 Multihop.hostC.wlan[0].radio radioMode:vector ETV
attr interpolationmode sample-hold
attr source radioModeChanged
attr title "Radio mode, vector"
vector 3 Multihop.hostD.wlan[0].radio radioMode:vector ETV
attr interpolationmode sample-hold
attr source radioModeChanged
attr title "Radio mode, vector"
vector 4 Multihop.hostE.wlan[0].radio radioMode:vector ETV
attr interpolationmode sample-hold
attr source radioModeChanged
attr title "Radio mode, vector"
vector 5 Multihop.hostF.wlan[0].radio radioMode:vector ETV
attr interpolationmode sample-hold
attr source radioModeChanged
attr title "Radio mode, vector"
vector 6 Multihop.hostG.wlan[0].radio radioMode:vector ETV
attr interpolationmode sample-hold
attr source radioModeChanged
attr title "Radio mode, vector"
vector 7 Multihop.hostH.wlan[0].radio radioMode:vector ETV
attr interpolationmode sample-hold
attr source radioModeChanged
attr title "Radio mode, vector"
vector 8 Multihop.hostA.wlan[0].radio receptionState:vector ETV
attr interpolationmode sample-hold
attr source receptionStateChanged
attr title "Radio reception state, vector"
vector 9 Multihop.hostB.wlan[0].radio receptionState:vector ETV
attr interpolationmode sample-hold
attr source receptionStateChanged
attr title "Radio reception state, vector"
vector 10 Multihop.hostC.wlan[0].radio receptionState:vector ETV
attr interpolationmode sample-hold
attr source receptionStateChanged
attr title "Radio reception state, vector"
vector 11 Multihop.hostD.wlan[0].radio receptionState:vector ETV
attr interpolationmode sample-hold
attr source receptionStateChanged
attr title "Radio reception state, vector"
vector 12 Multihop.hostE.wlan[0].radio receptionState:vector ETV
attr interpolationmode sample-hold
attr source receptionStateChanged
attr title "Radio reception state, vector"
vector 13 Multihop.hostF.wlan[0].radio receptionState:vector ETV
attr interpolationmode sample-hold
attr source receptionStateChanged
attr title "Radio reception state, vector"
vector 14 Multihop.hostG.wlan[0].radio receptionState:vector ETV
attr interpolationmode sample-hold
attr source receptionStateChanged
attr title "Radio reception state, vector"
vector 15 Multihop.hostH.wlan[0].radio receptionState:vector ETV
attr interpolationmode sample-hold
attr source receptionStateChanged
attr title "Radio reception state, vector"
vector 16 Multihop.hostA.app[0] packetSent:vector(packetBytes) ETV
attr interpolationmode none
attr source packetSent
attr title "packets sent, vector(packetBytes)"
vector 17 Multihop.hostA.udp packetSent:vector(packetBytes) ETV
attr interpolationmode none
attr source packetSent
attr title "packets sent, vector(packetBytes)"
vector 18 Multihop.hostA.wlan[0].mac.queue packetPushed:vector(packetBytes) ETV
attr interpolationmode none
attr title "packet pushed, vector(packetBytes)"
vector 19 Multihop.hostA.wlan[0].mac.queue queueLength:vector ETV
attr interpolationmode sample-hold
attr source "count(packetPushed) - count(packetPopped) - count(packetRemoved) - count(packetDropped)"
attr title "queue length, vector"
vector 20 Multihop.hostA.wlan[0].mac.queue packetPopped:vector(packetBytes) ETV
attr interpolationmode none
attr title "packet popped, vector(packetBytes)"
vector 21 Multihop.hostA.wlan[0].mac.queue queueingTime:vector ETV
attr interpolationmode none
attr source queueingTime(packetPopped)
attr title "queueing times, vector"
attr unit s
vector 22 Multihop.hostA.wlan[0].radio transmissionState:vector ETV
attr interpolationmode sample-hold
attr source transmissionStateChanged
attr title "Radio transmission state, vector"
vector 23 Multihop.hostC.udp packetReceived:vector(packetBytes) ETV
attr interpolationmode none
attr source packetReceived
attr title "packets received, vector(packetBytes)"
vector 24 Multihop.hostC.udp passedUpPk:vector(count) ETV
attr interpolationmode none
attr source packetSentToUpper
attr title "packets passed up, vector(count)"
vector 25 Multihop.hostC.udp packetSent:vector(packetBytes) ETV
attr interpolationmode none
attr source packetSent
attr title "packets sent, vector(packetBytes)"
vector 26 Multihop.hostC.wlan[0].mac.queue packetPushed:vector(packetBytes) ETV
attr interpolationmode none
attr title "packet pushed, vector(packetBytes)"
vector 27 Multihop.hostC.wlan[0].mac.queue queueLength:vector ETV
attr interpolationmode sample-hold
attr source "count(packetPushed) - count(packetPopped) - count(packetRemoved) - count(packetDropped)"
attr title "queue length, vector"
vector 28 Multihop.hostC.wlan[0].mac.queue packetPopped:vector(packetBytes) ETV
attr interpolationmode none
attr title "packet popped, vector(packetBytes)"
vector 29 Multihop.hostC.wlan[0].mac.queue queueingTime:vector ETV
attr interpolationmode none
attr source queueingTime(packetPopped)
attr title "queueing times, vector"
attr unit s
vector 30 Multihop.hostC.wlan[0].radio transmissionState:vector ETV
attr interpolationmode sample-hold
attr source transmissionStateChanged
attr title "Radio transmission state, vector"
vector 31 Multihop.hostA.udp packetReceived:vector(packetBytes) ETV
attr interpolationmode none
attr source packetReceived
attr title "packets received, vector(packetBytes)"
vector 32 Multihop.hostA.udp passedUpPk:vector(count) ETV
attr interpolationmode none
attr source packetSentToUpper
attr title "packets passed up, vector(count)"
vector 33 Multihop.hostD.udp packetReceived:vector(packetBytes) ETV
attr interpolationmode none
attr source packetReceived
attr title "packets received, vector(packetBytes)"
vector 34 Multihop.hostD.udp passedUpPk:vector(count) ETV
attr interpolationmode none
attr source packetSentToUpper
attr title "packets passed up, vector(count)"
vector 35 Multihop.hostE.udp packetReceived:vector(packetBytes) ETV
attr interpolationmode none
attr source packetReceived
attr title "packets received, vector(packetBytes)"
vector 36 Multihop.hostE.udp passedUpPk:vector(count) ETV
attr interpolationmode none
attr source packetSentToUpper
attr title "packets passed up, vector(count)"
vector 37 Multihop.hostE.udp packetSent:vector(packetBytes) ETV
attr interpolationmode none
attr source packetSent
attr title "packets sent, vector(packetBytes)"
vector 38 Multihop.hostE.wlan[0].mac.queue packetPushed:vector(packetBytes) ETV
attr interpolationmode none
attr title "packet pushed, vector(packetBytes)"
vector 39 Multihop.hostE.wlan[0].mac.queue queueLength:vector ETV
attr interpolationmode sample-hold
attr source "count(packetPushed) - count(packetPopped) - count(packetRemoved) - count(packetDropped)"
attr title "queue length, vector"
vector 40 Multihop.hostE.wlan[0].mac.queue packetPopped:vector(packetBytes) ETV
attr interpolationmode none
attr title "packet popped, vector(packetBytes)"
vector 41 Multihop.hostE.wlan[0].mac.queue queueingTime:vector ETV
attr interpolationmode none
attr source queueingTime(packetPopped)
attr title "queueing times, vector"
attr unit s
vector 42 Multihop.hostE.wlan[0].radio transmissionState:vector ETV
attr interpolationmode sample-hold
attr source transmissionStateChanged
attr title "Radio transmission state, vector"
vector 43 Multihop.hostF.udp packetReceived:vector(packetBytes) ETV
attr interpolationmode none
attr source packetReceived
attr title "packets received, vector(packetBytes)"
vector 44 Multihop.hostF.udp passedUpPk:vector(count) ETV
attr interpolationmode none
attr source packetSentToUpper
attr title "packets passed up, vector(count)"
vector 45 Multihop.hostG.udp packetReceived:vector(packetBytes) ETV
attr interpolationmode none
attr source packetReceived
attr title "packets received, vector(packetBytes)"
vector 46 Multihop.hostG.udp passedUpPk:vector(count) ETV
attr interpolationmode none
attr source packetSentToUpper
attr title "packets passed up, vector(count)"
vector 47 Multihop.hostD.udp packetSent:vector(packetBytes) ETV
attr interpolationmode none
attr source packetSent
attr title "packets sent, vector(packetBytes)"
vector 48 Multihop.hostD.wlan[0].mac.queue packetPushed:vector(packetBytes) ETV
attr interpolationmode none
attr title "packet pushed, vector(packetBytes)"
vector 49 Multihop.hostD.wlan[0].mac.queue queueLength:vector ETV
attr interpolationmode sample-hold
attr source "count(packetPushed) - count(packetPopped) - count(packetRemoved) - count(packetDropped)"
attr title "queue length, vector"
vector 50 Multihop.hostD.wlan[0].mac.queue packetPopped:vector(packetBytes) ETV
attr interpolationmode none
attr title "packet popped, vector(packetBytes)"
vector 51 Multihop.hostD.wlan[0].mac.queue queueingTime:vector ETV
attr interpolationmode none
attr source queueingTime(packetPopped)
attr title "queueing times, vector"
attr unit s
vector 52 Multihop.hostD.wlan[0].radio transmissionState:vector ETV
attr interpolationmode sample-hold
attr source transmissionStateChanged
attr title "Radio transmission state, vector"
vector 53 Multihop.hostF.udp packetSent:vector(packetBytes) ETV
attr interpolationmode none
attr source packetSent
attr title "packets sent, vector(packetBytes)"
vector 54 Multihop.hostF.wlan[0].mac.queue packetPushed:vector(packetBytes) ETV
attr interpolationmode none
attr title "packet pushed, vector(packetBytes)"
vector 55 Multihop.hostF.wlan[0].mac.queue queueLength:vector ETV
attr interpolationmode sample-hold
attr source "count(packetPushed) - count(packetPopped) - count(packetRemoved) - count(packetDropped)"
attr title "queue length, vector"
vector 56 Multihop.hostF.wlan[0].mac.queue packetPopped:vector(packetBytes) ETV
attr interpolationmode none
attr title "packet popped, vector(packetBytes)"
vector 57 Multihop.hostF.wlan[0].mac.queue queueingTime:vector ETV
attr interpolationmode none
attr source queueingTime(packetPopped)
attr title "queueing times, vector"
attr unit s
vector 58 Multihop.hostF.wlan[0].radio transmissionState:vector ETV
attr interpolationmode sample-hold
attr source transmissionStateChanged
attr title "Radio transmission state, vector"
vector 59 Multihop.hostH.udp packetReceived:vector(packetBytes) ETV
attr interpolationmode none
attr source packetReceived
attr title "packets received, vector(packetBytes)"
vector 60 Multihop.hostH.udp passedUpPk:vector(count) ETV
attr interpolationmode none
attr source packetSentToUpper
attr title "packets passed up, vector(count)"
vector 61 Multihop.hostG.udp packetSent:vector(packetBytes) ETV
attr interpolationmode none
attr source packetSent
attr title "packets sent, vector(packetBytes)"
vector 62 Multihop.hostG.wlan[0].mac.queue packetPushed:vector(packetBytes) ETV
attr interpolationmode none
attr title "packet pushed, vector(packetBytes)"
vector 63 Multihop.hostG.wlan[0].mac.queue queueLength:vector ETV
attr interpolationmode sample-hold
attr source "count(packetPushed) - count(packetPopped) - count(packetRemoved) - count(packetDropped)"
attr title "queue length, vector"
vector 64 Multihop.hostG.wlan[0].mac.queue packetPopped:vector(packetBytes) ETV
attr interpolationmode none
attr title "packet popped, vector(packetBytes)"
vector 65 Multihop.hostG.wlan[0].mac.queue queueingTime:vector ETV
attr interpolationmode none
attr source queueingTime(packetPopped)
attr title "queueing times, vector"
attr unit s
vector 66 Multihop.hostG.wlan[0].radio transmissionState:vector ETV
attr interpolationmode sample-hold
attr source transmissionStateChanged
attr title "Radio transmission state, vector"
vector 67 Multihop.hostC.wlan[0].mac packetDropIncorrectlyReceived:vector(packetBytes) ETV
attr interpolationmode none
attr source packetDropReasonIsIncorrectlyReceived(packetDropped)
attr title "packet drop: incorrectly received, vector(packetBytes)"
vector 68 Multihop.hostF.wlan[0].mac packetDropIncorrectlyReceived:vector(packetBytes) ETV
attr interpolationmode none
attr source packetDropReasonIsIncorrectlyReceived(packetDropped)
attr title "packet drop: incorrectly received, vector(packetBytes)"
vector 69 Multihop.hostH.udp packetSent:vector(packetBytes) ETV
attr interpolationmode none
attr source packetSent
attr title "packets sent, vector(packetBytes)"
vector 70 Multihop.hostH.wlan[0].mac.queue packetPushed:vector(packetBytes) ETV
attr interpolationmode none
attr title "packet pushed, vector(packetBytes)"
vector 71 Multihop.hostH.wlan[0].mac.queue queueLength:vector ETV
attr interpolationmode sample-hold
attr source "count(packetPushed) - count(packetPopped) - count(packetRemoved) - count(packetDropped)"
attr title "queue length, vector"
vector 72 Multihop.hostH.wlan[0].mac.queue packetPopped:vector(packetBytes) ETV
attr interpolationmode none
attr title "packet popped, vector(packetBytes)"
vector 73 Multihop.hostH.wlan[0].mac.queue queueingTime:vector ETV
attr interpolationmode none
attr source queueingTime(packetPopped)
attr title "queueing times, vector"
attr unit s
vector 74 Multihop.hostH.wlan[0].radio transmissionState:vector ETV
attr interpolationmode sample-hold
attr source transmissionStateChanged
attr title "Radio transmission state, vector"
vector 75 Multihop.hostB.udp packetReceived:vector(packetBytes) ETV
attr interpolationmode none
attr source packetReceived
attr title "packets received, vector(packetBytes)"
vector 76 Multihop.hostB.udp passedUpPk:vector(count) ETV
attr interpolationmode none
attr source packetSentToUpper
attr title "packets passed up, vector(count)"
vector 77 Multihop.hostB.udp packetSent:vector(packetBytes) ETV
attr interpolationmode none
attr source packetSent
attr title "packets sent, vector(packetBytes)"
vector 78 Multihop.hostB.wlan[0].mac.queue packetPushed:vector(packetBytes) ETV
attr interpolationmode none
attr title "packet pushed, vector(packetBytes)"
vector 79 Multihop.hostB.wlan[0].mac.queue queueLength:vector ETV
attr interpolationmode sample-hold
attr source "count(packetPushed) - count(packetPopped) - count(packetRemoved) - count(packetDropped)"
attr title "queue length, vector"
vector 80 Multihop.hostB.wlan[0].mac.queue packetPopped:vector(packetBytes) ETV
attr interpolationmode none
attr title "packet popped, vector(packetBytes)"
vector 81 Multihop.hostB.wlan[0].mac.queue queueingTime:vector ETV
attr interpolationmode none
attr source queueingTime(packetPopped)
attr title "queueing times, vector"
attr unit s
vector 82 Multihop.hostB.wlan[0].radio transmissionState:vector ETV
attr interpolationmode sample-hold
attr source transmissionStateChanged
attr title "Radio transmission state, vector"
vector 83 Multihop.hostB.wlan[0].mac packetDropNotAddressedToUs:vector(packetBytes) ETV
attr interpolationmode none
attr source packetDropReasonIsNotAddressedToUs(packetDropped)
attr title "packet drop: not addressed to us, vector(packetBytes)"
vector 84 Multihop.hostF.wlan[0].mac packetDropNotAddressedToUs:vector(packetBytes) ETV
attr interpolationmode none
attr source packetDropReasonIsNotAddressedToUs(packetDropped)
attr title "packet drop: not addressed to us, vector(packetBytes)"
vector 85 Multihop.hostH.wlan[0].mac packetDropNotAddressedToUs:vector(packetBytes) ETV
attr interpolationmode none
attr source packetDropReasonIsNotAddressedToUs(packetDropped)
attr title "packet drop: not addressed to us, vector(packetBytes)"
vector 86 Multihop.hostG.wlan[0].mac packetDropNotAddressedToUs:vector(packetBytes) ETV
attr interpolationmode none
attr source packetDropReasonIsNotAddressedToUs(packetDropped)
attr title "packet drop: not addressed to us, vector(packetBytes)"
vector 87 Multihop.hostD.wlan[0].mac packetDropNotAddressedToUs:vector(packetBytes) ETV
attr interpolationmode none
attr source packetDropReasonIsNotAddressedToUs(packetDropped)
attr title "packet drop: not addressed to us, vector(packetBytes)"
vector 88 Multihop.hostE.wlan[0].mac packetDropNotAddressedToUs:vector(packetBytes) ETV
attr interpolationmode none
attr source packetDropReasonIsNotAddressedToUs(packetDropped)
attr title "packet drop: not addressed to us, vector(packetBytes)"
vector 89 Multihop.hostA.wlan[0].mac packetDropNotAddressedToUs:vector(packetBytes) ETV
attr interpolationmode none
attr source packetDropReasonIsNotAddressedToUs(packetDropped)
attr title "packet drop: not addressed to us, vector(packetBytes)"
vector 90 Multihop.hostG.wlan[0].mac packetDropIncorrectlyReceived:vector(packetBytes) ETV
attr interpolationmode none
attr source packetDropReasonIsIncorrectlyReceived(packetDropped)
attr title "packet drop: incorrectly received, vector(packetBytes)"
vector 91 Multihop.hostB.app[0] packetReceived:vector(packetBytes) ETV
attr interpolationmode none
attr source packetReceived
attr title "packets received, vector(packetBytes)"
vector 92 Multihop.hostB.app[0] throughput:vector ETV
attr source throughput(packetReceived)
attr title "throughput, vector"
attr unit bps
vector 93 Multihop.hostB.app[0] endToEndDelay:vector ETV
attr interpolationmode none
attr source dataAge(packetReceived)
attr title "end-to-end delay, vector"
attr unit s
vector 94 Multihop.hostB.app[0] rcvdPkSeqNo:vector ETV
attr interpolationmode none
attr source appPkSeqNo(packetReceived)
attr title "received packet sequence number, vector"
vector 95 Multihop.hostD.wlan[0].mac packetDropIncorrectlyReceived:vector(packetBytes) ETV
attr interpolationmode none
attr source packetDropReasonIsIncorrectlyReceived(packetDropped)
attr title "packet drop: incorrectly received, vector(packetBytes)"
vector 96 Multihop.hostC.wlan[0].mac packetDropNotAddressedToUs:vector(packetBytes) ETV
attr interpolationmode none
attr source packetDropReasonIsNotAddressedToUs(packetDropped)
attr title "packet drop: not addressed to us, vector(packetBytes)"
vector 97 Multihop.hostA.wlan[0].mac packetDropRetryLimitReached:vector(packetBytes) ETV
attr interpolationmode none
attr source packetDropReasonIsRetryLimitReached(packetDropped)
attr title "packet drop: retry limit reached, vector(packetBytes)"
vector 98 Multihop.hostB.wlan[0].mac packetDropIncorrectlyReceived:vector(packetBytes) ETV
attr interpolationmode none
attr source packetDropReasonIsIncorrectlyReceived(packetDropped)
attr title "packet drop: incorrectly received, vector(packetBytes)"
vector 99 Multihop.hostE.wlan[0].mac packetDropIncorrectlyReceived:vector(packetBytes) ETV
attr interpolationmode none
attr source packetDropReasonIsIncorrectlyReceived(packetDropped)
attr title "packet drop: incorrectly received, vector(packetBytes)"
vector 100 Multihop.hostC.wlan[0].mac packetDropRetryLimitReached:vector(packetBytes) ETV
attr interpolationmode none
attr source packetDropReasonIsRetryLimitReached(packetDropped)
attr title "packet drop: retry limit reached, vector(packetBytes)"
vector 101 Multihop.hostA.app[0] throughput:vector ETV
attr source throughput(packetReceived)
attr title "throughput, vector"
attr unit bps
0	0	0	0
0	0	0	0
0	0	0	2
0	29	0.017629494655	3
0	38	0.018309494655	2
0	167	0.336632776025	3
0	176	0.337312776025	2
0	509	0.819712879493	3
0	518	0.820392879493	2
0	1028	0.847668682365	3
0	1037	0.847908682365	2
0	1047	0.848118682365	3
0	1062	0.856606682365	2
0	1095	0.857307683057	3
0	1110	0.865795683057	2
0	1236	0.883764018005	3
0	1256	0.892252018005	2
0	1288	0.892682018005	3
0	1324	0.901170018005	2
0	1390	0.903240018005	3
0	1462	0.911728018005	2
0	1472	0.915118018005	3
0	1526	0.923606018005	2
0	1536	0.926936018005	3
0	1589	0.935424018005	2
0	1604	0.936274018005	3
0	1646	0.944762018005	2
0	1680	0.945503018697	3
0	1694	0.953991018697	2
0	1783	0.963210019389	3
0	1816	0.971698019389	2
0	1847	0.972768019389	3
0	1891	0.981256019389	2
0	2005	0.992445020081	3
0	2072	1.000933020081	2
0	2082	1.004963020081	3
0	2139	1.013451020081	2
0	2183	1.019281020081	3
0	2203	1.027769020081	2
0	2272	1.036908020773	3
0	2309	1.045396020773	2
0	2341	1.046226020773	3
0	2372	1.054714020773	2
0	2474	1.064084689285	3
0	2539	1.072572689285	2
0	2594	1.076702689285	3
0	2649	1.085190689285	2
0	2726	1.094939689977	3
0	2760	1.103427689977	2
0	2866	1.116097689977	3
0	2923	1.124585689977	2
0	3095	1.146574690669	3
0	3152	1.155062690669	2
0	3214	1.166232690669	3
0	3257	1.174720690669	2
0	3335	1.184019691361	3
0	3355	1.192507691361	2
0	3408	1.193777691361	3
0	3451	1.202265691361	2
0	3474	1.204775691361	3
0	3517	1.213263691361	2
0	3599	1.222722692053	3
0	3619	1.231210692053	2
0	3673	1.232460692053	3
0	3719	1.240948692053	2
0	3742	1.243238692053	3
0	3785	1.251726692053	2
0	3818	1.252067692745	3
0	3828	1.260555692745	2
0	3861	1.260896693437	3
0	3872	1.269384693437	2
0	3998	1.287253028385	3
0	4035	1.295741028385	2
0	4090	1.297331028385	3
0	4153	1.305819028385	2
0	4166	1.307389028385	3
0	4232	1.315877028385	2
0	4243	1.316927028385	3
0	4295	1.325415028385	2
0	4311	1.332705028385	3
0	4364	1.341193028385	2
0	4474	1.353602029077	3
0	4527	1.362090029077	2
0	4541	1.368220029077	3
0	4594	1.376708029077	2
0	4710	1.391057029769	3
0	4763	1.399545029769	2
0	4773	1.400195029769	3
0	4836	1.408683029769	2
0	4847	1.409253029769	3
0	4893	1.417741029769	2
0	4926	1.418162030461	3
0	4940	1.426650030461	2
0	5020	1.436049031153	3
0	5043	1.444537031153	2
0	5096	1.445467031153	3
0	5131	1.453955031153	2
0	5255	1.464844031845	3
0	5289	1.473332031845	2
0	5299	1.475782031845	3
0	5352	1.484270031845	2
0	5408	1.492300031845	3
0	5452	1.500788031845	2
0	5488	1.501569032537	3
0	5501	1.510057032537	2
0	5534	1.510418033229	3
0	5545	1.518906033229	2
0	5625	1.528125033921	3
0	5651	1.536613033921	2
0	5704	1.537423033921	3
0	5751	1.545911033921	2
0	5866	1.556540034613	3
0	5919	1.565028034613	2
0	5930	1.569038034613	3
0	5986	1.577526034613	2
0	6091	1.594655035305	3
0	6144	1.603143035305	2
0	6200	1.609013035305	3
0	6247	1.617501035305	2
0	6280	1.617942035997	3
0	6290	1.626430035997	2
0	6323	1.626891036689	3
0	6337	1.635379036689	2
0	6413	1.644318037381	3
0	6446	1.652806037381	2
0	6527	1.662256705893	3
0	6565	1.670744705893	2
0	6630	1.672114705893	3
0	6693	1.680602705893	2
0	6709	1.681972705893	3
0	6765	1.690460705893	2
0	6779	1.697090705893	3
0	6842	1.705578705893	2
0	7045	1.730200042917	3
0	7109	1.738688042917	2
0	7122	1.742298042917	3
0	7179	1.750786042917	2
0	7323	1.765674045685	3
0	7361	1.774162045685	2
0	7371	1.774832045685	3
0	7423	1.783320045685	2
0	7434	1.784790045685	3
0	7493	1.793278045685	2
0	7573	1.802007046377	3
0	7607	1.810495046377	2
0	7672	1.814725046377	3
0	7736	1.823213046377	2
0	7746	1.824683046377	3
0	7782	1.833171046377	2
0	7837	1.839121046377	3
0	7889	1.847609046377	2
0	8081	1.876298047069	3
0	8124	1.884786047069	2
0	8157	1.885107047761	3
0	8169	1.893595047761	2
0	8240	1.902894048453	3
0	8273	1.911382048453	2
0	8327	1.912792048453	3
0	8358	1.921280048453	2
0	8525	1.940338383401	3
0	8588	1.948826383401	2
0	8603	1.953356383401	3
0	8659	1.961844383401	2
0	8672	1.964714383401	3
0	8726	1.973202383401	2
0	8780	1.980032383401	3
0	8834	1.988520383401	2
0	8867	1.989121384093	3
0	8909	1.997609384093	2
0	8984	2.006648384785	3
0	9020	2.015136384785	2
0	9073	2.016346384785	3
0	9105	2.024834384785	2
0	9186	2.034103385477	3
0	9248	2.042591385477	2
0	9303	2.044421385477	3
0	9358	2.052909385477	2
0	9468	2.069718386169	3
0	9525	2.078206386169	2
0	9616	2.095296386169	3
0	9630	2.103784386169	2
0	9663	2.104105386861	3
0	9672	2.112593386861	2
0	9742	2.121992387553	3
0	9778	2.130480387553	2
0	9788	2.131010387553	3
0	9844	2.139498387553	2
0	9854	2.139988387553	3
0	9910	2.148476387553	2
0	10064	2.170834722501	3
0	10118	2.179322722501	2
0	10182	2.186472722501	3
0	10249	2.194960722501	2
0	10278	2.202250722501	3
0	10320	2.210738722501	2
0	10366	2.214068722501	3
0	10421	2.222556722501	2
0	10485	2.236566722501	3
0	10541	2.245054722501	2
0	10555	2.245604722501	3
0	10597	2.254092722501	2
0	10630	2.254433723193	3
0	10644	2.262921723193	2
0	10677	2.263222723885	3
0	10691	2.271710723885	2
0	10724	2.272291724577	3
0	10738	2.280779724577	2
0	10805	2.289738725269	3
0	10838	2.298226725269	2
0	10892	2.299756725269	3
0	10935	2.308244725269	2
0	11048	2.317893725961	3
0	11081	2.326381725961	2
0	11119	2.330611725961	3
0	11179	2.339099725961	2
0	11373	2.366198060909	3
0	11408	2.374686060909	2
0	11560	2.394352729421	3
0	11617	2.402840729421	2
0	11722	2.423150729421	3
0	11781	2.431638729421	2
0	11873	2.450168729421	3
0	11887	2.458656729421	2
0	11920	2.459257730113	3
0	11932	2.467745730113	2
0	12002	2.477004730805	3
0	12041	2.485492730805	2
0	12073	2.486402730805	3
0	12104	2.494890730805	2
0	12249	2.505801399317	3
0	12280	2.514289399317	2
0	12291	2.518199399317	3
0	12354	2.526687399317	2
0	12365	2.530517399317	3
0	12427	2.539005399317	2
0	12620	2.560413402085	3
0	12669	2.568901402085	2
0	12698	2.571651402085	3
0	12751	2.580139402085	2
0	12816	2.597609402085	3
0	12828	2.606097402085	2
0	12861	2.606438402777	3
0	12870	2.614926402777	2
0	12962	2.624325403469	3
0	13001	2.632813403469	2
0	13023	2.633423403469	3
0	13055	2.641911403469	2
0	13150	2.650682071981	3
0	13217	2.659170071981	2
0	13300	2.671369406237	3
0	13369	2.679857406237	2
0	13380	2.681687406237	3
0	13442	2.690175406237	2
0	13545	2.709525406237	3
0	13602	2.718013406237	2
0	13613	2.721763406237	3
0	13669	2.730251406237	2
0	13726	2.740101406237	3
0	13773	2.748589406237	2
0	13842	2.757788406929	3
0	13878	2.766276406929	2
0	13956	2.775767075441	3
0	13991	2.784255075441	2
0	14094	2.793945743953	3
0	14118	2.802433743953	2
0	14172	2.806003743953	3
0	14236	2.814491743953	2
0	14271	2.821901743953	3
0	14323	2.830389743953	2
0	14466	2.850979743953	3
0	14520	2.859467743953	2
0	14542	2.870297743953	3
0	14593	2.878785743953	2
0	14684	2.895415743953	3
0	14695	2.903903743953	2
0	14760	2.913202744645	3
0	14799	2.921690744645	2
0	14843	2.922860744645	3
0	14866	2.931348744645	2
0	15014	2.942599413157	3
0	15073	2.951087413157	2
0	15087	2.956177413157	3
0	15143	2.964665413157	2
0	15154	2.966435413157	3
0	15200	2.974923413157	2
0	15278	2.984342413849	3
0	15304	2.992830413849	2
0	15359	2.993500413849	3
0	15402	3.001988413849	2
0	15437	3.004078413849	3
0	15484	3.012566413849	2
0	15550	3.021525414541	3
0	15592	3.030013414541	2
0	15692	3.039624083053	3
0	15726	3.048112083053	2
0	15758	3.050562083053	3
0	15813	3.059050083053	2
0	15824	3.061480083053	3
0	15880	3.069968083053	2
0	15891	3.073658083053	3
0	15947	3.082146083053	2
0	15997	3.100936083053	3
0	16006	3.109424083053	2
0	16071	3.118743083745	3
0	16104	3.127231083745	2
0	16148	3.128181083745	3
0	16171	3.136669083745	2
0	16260	3.146059752257	3
0	16324	3.154547752257	2
0	16411	3.165907086513	3
0	16470	3.174395086513	2
0	16520	3.182545086513	3
0	16546	3.191033086513	2
0	16653	3.208783086513	3
0	16706	3.217271086513	2
0	16739	3.217592087205	3
0	16781	3.226080087205	2
0	16859	3.235159087897	3
0	16883	3.243647087897	2
0	16967	3.252997756409	3
0	17002	3.261485756409	2
0	17057	3.263875756409	3
0	17112	3.272363756409	2
0	17218	3.283532757101	3
0	17286	3.292020757101	2
0	17357	3.301490757101	3
0	17393	3.309978757101	2
0	17411	3.316968757101	3
0	17467	3.325456757101	2
0	17523	3.330246757101	3
0	17570	3.338734757101	2
0	17653	3.347893757793	3
0	17677	3.356381757793	2
0	17731	3.357991757793	3
0	17783	3.366479757793	2
0	17796	3.368009757793	3
0	17839	3.376497757793	2
0	17920	3.385956758485	3
0	17940	3.394444758485	2
0	17983	3.395434758485	3
0	18009	3.403922758485	2
0	18055	3.404852758485	3
0	18077	3.413340758485	2
0	18142	3.413741759177	3
0	18157	3.422229759177	2
0	18242	3.431688759869	3
0	18265	3.440176759869	2
0	18307	3.440906759869	3
0	18328	3.449394759869	2
0	18475	3.460325428381	3
0	18505	3.468813428381	2
0	18516	3.473303428381	3
0	18579	3.481791428381	2
0	18639	3.487181428381	3
0	18661	3.495669428381	2
0	18737	3.505159428381	3
0	18770	3.513647428381	2
0	18869	3.523086429073	3
0	18905	3.531574429073	2
0	18962	3.533064429073	3
0	18996	3.541552429073	2
0	19114	3.551101429765	3
0	19135	3.559589429765	2
0	19181	3.560399429765	3
0	19209	3.568887429765	2
0	19265	3.574157429765	3
0	19312	3.582645429765	2
0	19384	3.591844430457	3
0	19417	3.600332430457	2
0	19461	3.601362430457	3
0	19481	3.609850430457	2
0	19628	3.620361098969	3
0	19669	3.628849098969	2
0	19702	3.631339098969	3
0	19762	3.639827098969	2
0	19773	3.642177098969	3
0	19816	3.650665098969	2
0	19894	3.660084099661	3
0	19914	3.668572099661	2
0	19946	3.669022099661	3
0	19977	3.677510099661	2
0	20036	3.679900099661	3
0	20083	3.688388099661	2
0	20116	3.688769100353	3
0	20129	3.697257100353	2
0	20162	3.697758101045	3
0	20176	3.706246101045	2
0	20256	3.715525101737	3
0	20276	3.724013101737	2
0	20425	3.742613104505	3
0	20448	3.751101104505	2
0	20503	3.753391104505	3
0	20571	3.761879104505	2
0	20582	3.762549104505	3
0	20644	3.771037104505	2
0	20656	3.774727104505	3
0	20709	3.783215104505	2
0	20798	3.796945104505	3
0	20818	3.805433104505	2
0	20874	3.805894105197	3
0	20904	3.814382105197	2
0	21005	3.823681105889	3
0	21045	3.832169105889	2
0	21100	3.833779105889	3
0	21147	3.842267105889	2
0	21317	3.861405440837	3
0	21370	3.869893440837	2
0	21382	3.875023440837	3
0	21441	3.883511440837	2
0	21498	3.892201440837	3
0	21552	3.900689440837	2
0	21584	3.905019440837	3
0	21619	3.913507440837	2
0	21730	3.922706441529	3
0	21750	3.931194441529	2
0	21793	3.931964441529	3
0	21813	3.940452441529	2
0	21824	3.940842441529	3
0	21878	3.949330441529	2
0	21889	3.949880441529	3
0	21932	3.958368441529	2
0	22002	3.967327442221	3
0	22035	3.975815442221	2
0	22136	3.985886110733	3
0	22187	3.994374110733	2
0	22220	3.994904110733	3
0	22272	4.003392110733	2
0	22305	4.006382110733	3
0	22371	4.014870110733	2
0	22382	4.017100110733	3
0	22444	4.025588110733	2
0	22531	4.042958110733	3
0	22594	4.051446110733	2
0	22670	4.063996110733	3
0	22722	4.072484110733	2
0	22734	4.076494110733	3
0	22780	4.084982110733	2
0	22813	4.085323111425	3
0	22826	4.093811111425	2
0	22859	4.094132112117	3
0	22873	4.102620112117	2
0	22943	4.111779112809	3
0	22976	4.120267112809	2
0	23029	4.121237112809	3
0	23067	4.129725112809	2
0	23198	4.139574113501	3
0	23231	4.148062113501	2
0	23266	4.151072113501	3
0	23323	4.159560113501	2
0	23425	4.174849114193	3
0	23479	4.183337114193	2
0	23668	4.206045782705	3
0	23721	4.214533782705	2
0	23764	4.222783782705	3
0	23775	4.231271782705	2
0	23845	4.240370783397	3
0	23878	4.248858783397	2
0	23975	4.258949451909	3
0	24008	4.267437451909	2
0	24073	4.268118452601	3
0	24085	4.276606452601	2
0	24118	4.277347453293	3
0	24131	4.285835453293	2
0	24165	4.286636453985	3
0	24175	4.295124453985	2
0	24209	4.296005454677	3
0	24225	4.304493454677	2
0	24298	4.313832455369	3
0	24340	4.322320455369	2
0	24384	4.323450455369	3
0	24404	4.331938455369	2
0	24626	4.359107792393	3
0	24662	4.367595792393	2
0	24776	4.380886460905	3
0	24836	4.389374460905	2
0	24976	4.404683129417	3
0	25012	4.413171129417	2
0	25219	4.445599132185	3
0	25276	4.454087132185	2
0	25381	4.466337132185	3
0	25436	4.474825132185	2
0	25458	4.480915132185	3
0	25533	4.489403132185	2
0	25544	4.490253132185	3
0	25615	4.498741132185	2
0	25627	4.499511132185	3
0	25660	4.507999132185	2
0	25672	4.509689132185	3
0	25739	4.518177132185	2
0	25782	4.520447132185	3
0	25813	4.528935132185	2
0	25879	4.539425132185	3
0	25931	4.547913132185	2
0	25961	4.562203132185	3
0	26022	4.570691132185	2
0	26143	4.589321132185	3
0	26201	4.597809132185	2
0	26253	4.599979132185	3
0	26298	4.608467132185	2
0	26320	4.609397132185	3
0	26374	4.617885132185	2
0	26387	4.618495132185	3
0	26438	4.626983132185	2
0	26451	4.627913132185	3
0	26493	4.636401132185	2
0	26526	4.636982132877	3
0	26540	4.645470132877	2
0	26618	4.654869133569	3
0	26648	4.663357133569	2
0	26754	4.672767802081	3
0	26791	4.681255802081	2
0	26821	4.682045802081	3
0	26866	4.690533802081	2
0	26892	4.694123802081	3
0	26948	4.702611802081	2
0	27001	4.708761802081	3
0	27035	4.717249802081	2
0	27117	4.726288802773	3
0	27155	4.734776802773	2
0	27202	4.735326802773	3
0	27228	4.743814802773	2
0	27376	4.754445471285	3
0	27407	4.762933471285	2
0	27440	4.767163471285	3
0	27494	4.775651471285	2
0	27538	4.782321471285	3
0	27548	4.790809471285	2
0	27638	4.800028471977	3
0	27659	4.808516471977	2
0	27702	4.809466471977	3
0	27722	4.817954471977	2
0	27767	4.818604471977	3
0	27787	4.827092471977	2
0	27843	4.827593472669	3
0	27867	4.836081472669	2
0	27902	4.836522473361	3
0	27923	4.845010473361	2
0	27999	4.854089807617	3
0	28033	4.862577807617	2
0	28089	4.864527807617	3
0	28155	4.873015807617	2
0	28168	4.874005807617	3
0	28236	4.882493807617	2
0	28251	4.885223807617	3
0	28316	4.893711807617	2
0	28445	4.914562811077	3
0	28505	4.923050811077	2
0	28515	4.923540811077	3
0	28567	4.932028811077	2
0	28670	4.950538811077	3
0	28727	4.959026811077	2
0	28738	4.959636811077	3
0	28790	4.968124811077	2
0	28802	4.969034811077	3
0	28866	4.977522811077	2
0	28900	4.978283811769	3
0	28948	4.986771811769	2
0	29021	4.995690812461	3
0	29062	5.004178812461	2
0	29106	5.005228812461	3
0	29129	5.013716812461	2
0	29313	5.032296815229	3
0	29337	5.040784815229	2
0	29392	5.043614815229	3
0	29446	5.052102815229	2
0	29456	5.054432815229	3
0	29510	5.062920815229	2
0	29569	5.068990815229	3
0	29622	5.077478815229	2
0	29734	5.086897815921	3
0	29759	5.095385815921	2
0	29803	5.096315815921	3
0	29826	5.104803815921	2
0	29882	5.107493815921	3
0	29929	5.115981815921	2
0	29965	5.116422816613	3
0	29978	5.124910816613	2
0	30061	5.134329817305	3
0	30081	5.142817817305	2
0	30123	5.143647817305	3
0	30144	5.152135817305	2
0	30298	5.163026485817	3
0	30353	5.171514485817	2
0	30366	5.176864485817	3
0	30422	5.185352485817	2
0	30466	5.195082485817	3
0	30478	5.203570485817	2
0	30543	5.212749486509	3
0	30585	5.221237486509	2
0	30638	5.222427486509	3
0	30685	5.230915486509	2
0	30796	5.241064487201	3
0	30847	5.249552487201	2
0	30861	5.250842487201	3
0	30913	5.259330487201	2
0	30961	5.268080487201	3
0	30974	5.276568487201	2
0	31044	5.285767487893	3
0	31080	5.294255487893	2
0	31124	5.295185487893	3
0	31144	5.303673487893	2
0	31200	5.304723487893	3
0	31233	5.313211487893	2
0	31326	5.322430488585	3
0	31348	5.330918488585	2
0	31451	5.340709157097	3
0	31499	5.349197157097	2
0	31520	5.350307157097	3
0	31581	5.358795157097	2
0	31594	5.359885157097	3
0	31636	5.368373157097	2
0	31651	5.376063157097	3
0	31708	5.384551157097	2
0	31806	5.398441157097	3
0	31820	5.406929157097	2
0	31853	5.407370157789	3
0	31862	5.415858157789	2
0	31948	5.425177158481	3
0	31968	5.433665158481	2
0	32012	5.434655158481	3
0	32035	5.443143158481	2
0	32185	5.453973826993	3
0	32232	5.462461826993	2
0	32252	5.466971826993	3
0	32306	5.475459826993	2
0	32320	5.477689826993	3
0	32376	5.486177826993	2
0	32463	5.498427826993	3
0	32474	5.506915826993	2
0	32507	5.507256827685	3
0	32524	5.515744827685	2
0	32597	5.525043828377	3
0	32630	5.533531828377	2
0	32684	5.535021828377	3
0	32736	5.543509828377	2
0	32889	5.563208163325	3
0	32943	5.571696163325	2
0	32953	5.576046163325	3
0	33022	5.584534163325	2
0	33033	5.585844163325	3
0	33097	5.594332163325	2
0	33200	5.613902163325	3
0	33246	5.622390163325	2
0	33312	5.631489164017	3
0	33345	5.639977164017	2
0	33398	5.640867164017	3
0	33430	5.649355164017	2
0	33464	5.650085164017	3
0	33507	5.658573164017	2
0	33540	5.658914164709	3
0	33555	5.667402164709	2
0	33626	5.676561165401	3
0	33659	5.685049165401	2
0	33691	5.685459165401	3
0	33722	5.693947165401	2
0	33779	5.695957165401	3
0	33828	5.704445165401	2
0	33862	5.704786166093	3
0	33877	5.713274166093	2
0	33911	5.713615166785	3
0	33922	5.722103166785	2
0	33955	5.722984167477	3
0	33966	5.731472167477	2
0	34055	5.740891168169	3
0	34082	5.749379168169	2
0	34258	5.776448505193	3
0	34283	5.784936505193	2
0	34353	5.787506505193	3
0	34421	5.795994505193	2
0	34431	5.799284505193	3
0	34501	5.807772505193	2
0	34665	5.830922842909	3
0	34698	5.839410842909	2
0	34783	5.857141511421	3
0	34840	5.865629511421	2
0	34921	5.875319511421	3
0	34978	5.883807511421	2
0	35044	5.890797511421	3
0	35109	5.899285511421	2
0	35122	5.899975511421	3
0	35188	5.908463511421	2
0	35199	5.909093511421	3
0	35261	5.917581511421	2
0	35273	5.919151511421	3
0	35327	5.927639511421	2
0	35338	5.928569511421	3
0	35393	5.937057511421	2
0	35405	5.940067511421	3
0	35472	5.948555511421	2
0	35549	5.958865511421	3
0	35613	5.967353511421	2
0	35739	5.985763511421	3
0	35804	5.994251511421	2
0	35911	6.005421511421	3
0	35941	6.013909511421	2
0	35992	6.014679511421	3
0	36014	6.023167511421	2
0	36046	6.023517511421	3
0	36081	6.032005511421	2
0	36113	6.032875511421	3
0	36146	6.041363511421	2
0	36270	6.050722512113	3
0	36303	6.059210512113	2
0	36333	6.060200512113	3
0	36376	6.068688512113	2
0	36400	6.070658512113	3
0	36443	6.079146512113	2
0	36515	6.088165512805	3
0	36551	6.096653512805	2
0	36583	6.097283512805	3
0	36614	6.105771512805	2
0	36748	6.116402181317	3
0	36768	6.124890181317	2
0	36826	6.127180181317	3
0	36883	6.135668181317	2
0	36933	6.144438181317	3
0	36946	6.152926181317	2
0	37022	6.162125182009	3
0	37061	6.170613182009	2
0	37103	6.171463182009	3
0	37130	6.179951182009	2
0	37263	6.190401850521	3
0	37284	6.198889850521	2
0	37339	6.201159850521	3
0	37398	6.209647850521	2
0	37413	6.217737850521	3
0	37459	6.226225850521	2
0	37492	6.226546851213	3
0	37502	6.235034851213	2
0	37535	6.235695851905	3
0	37549	6.244183851905	2
0	37635	6.253562852597	3
0	37661	6.262050852597	2
0	37764	6.272201521109	3
0	37817	6.280689521109	2
0	37828	6.281519521109	3
0	37881	6.290007521109	2
0	37893	6.290437521109	3
0	37945	6.298925521109	2
0	38112	6.317694521801	3
0	38144	6.326182521801	2
0	38225	6.343932521801	3
0	38268	6.352420521801	2
0	38346	6.361839522493	3
0	38366	6.370327522493	2
0	38419	6.371517522493	3
0	38453	6.380005522493	2
0	38487	6.380795522493	3
0	38520	6.389283522493	2
0	38562	6.389804523185	3
0	38577	6.398292523185	2
0	38668	6.407711523877	3
0	38704	6.416199523877	2
0	38736	6.417169523877	3
0	38794	6.425657523877	2
0	38899	6.435786524569	3
0	38941	6.444274524569	2
0	38963	6.448724524569	3
0	39016	6.457212524569	2
0	39060	6.463922524569	3
0	39074	6.472410524569	2
0	39108	6.473171525261	3
0	39117	6.481659525261	2
0	39200	6.491058525953	3
0	39220	6.499546525953	2
0	39311	6.509237194465	3
0	39332	6.517725194465	2
0	39398	6.520295194465	3
0	39468	6.528783194465	2
0	39478	6.531693194465	3
0	39511	6.540181194465	2
0	39521	6.541291194465	3
0	39583	6.549779194465	2
0	39638	6.553989194465	3
0	39663	6.562477194465	2
0	39765	6.573507194465	3
0	39813	6.581995194465	2
0	39848	6.582416195157	3
0	39868	6.590904195157	2
0	39919	6.591954195157	3
0	39966	6.600442195157	2
0	39988	6.603232195157	3
0	40041	6.611720195157	2
0	40052	6.614110195157	3
0	40095	6.622598195157	2
0	40128	6.623179195849	3
0	40138	6.631667195849	2
0	40208	6.640806196541	3
0	40241	6.649294196541	2
0	40285	6.649824196541	3
0	40305	6.658312196541	2
0	40451	6.668822865053	3
0	40494	6.677310865053	2
0	40517	6.678740865053	3
0	40569	6.687228865053	2
0	40670	6.705477865745	3
0	40723	6.713965865745	2
0	40813	6.734455865745	3
0	40828	6.742943865745	2
0	40893	6.752102866437	3
0	40926	6.760590866437	2
0	40936	6.761040866437	3
0	40989	6.769528866437	2
0	41033	6.770318866437	3
0	41057	6.778806866437	2
0	41179	6.788205867129	3
0	41221	6.796693867129	2
0	41298	6.806164535641	3
0	41332	6.814652535641	2
0	41375	6.816422535641	3
0	41440	6.824910535641	2
0	41450	6.827300535641	3
0	41510	6.835788535641	2
0	41523	6.838938535641	3
0	41579	6.847426535641	2
0	41624	6.858316535641	3
0	41638	6.866804535641	2
0	41671	6.867145536333	3
0	41686	6.875633536333	2
0	41719	6.876074537025	3
0	41730	6.884562537025	2
0	41797	6.893701537717	3
0	41833	6.902189537717	2
0	41877	6.903039537717	3
0	41897	6.911527537717	2
0	42001	6.920798206229	3
0	42054	6.929286206229	2
0	42112	6.938705540485	3
0	42155	6.947193540485	2
0	42211	6.952363540485	3
0	42268	6.960851540485	2
0	42419	6.984031543253	3
0	42485	6.992519543253	2
0	42582	7.002258211765	3
0	42618	7.010746211765	2
0	42789	7.031384880277	3
0	42843	7.039872880277	2
0	42853	7.040822880277	3
0	42919	7.049310880277	2
0	42931	7.050400880277	3
0	42993	7.058888880277	2
0	43005	7.060038880277	3
0	43058	7.068526880277	2
0	43070	7.070996880277	3
0	43137	7.079484880277	2
0	43202	7.089854880277	3
0	43261	7.098342880277	2
0	43328	7.106152880277	3
0	43402	7.114640880277	2
0	43514	7.134430880277	3
0	43569	7.142918880277	2
0	43618	7.153648880277	3
0	43629	7.162136880277	2
0	43662	7.162597880969	3
0	43674	7.171085880969	2
0	43707	7.171446881661	3
0	43721	7.179934881661	2
0	43801	7.189353882353	3
0	43820	7.190065882353	2
0	43831	7.190355882353	3
0	43840	7.191035882353	2
0	43850	7.191345882353	3
0	43859	7.192025882353	2
0	43869	7.192215882353	3
0	43878	7.192895882353	2
0	43888	7.193465882353	3
0	43897	7.194145882353	2
0	43907	7.194495882353	3
0	43916	7.195175882353	2
0	45018	8.765842134403	3
0	45027	8.766522134403	2
0	46085	8.789811124227	3
0	46094	8.790051124227	2
0	46104	8.790121124227	3
0	46123	8.798609124227	2
0	46156	8.798990124919	3
0	46171	8.807478124919	2
0	46204	8.807919125611	3
0	46223	8.816407125611	2
0	46301	8.825766126303	3
0	46326	8.834254126303	2
0	46496	8.852851460559	3
0	46553	8.861339460559	2
0	46666	8.871078794815	3
0	46696	8.879566794815	2
0	46800	8.889546129071	3
0	46826	8.898034129071	2
0	46883	8.908184129071	3
0	46951	8.916672129071	2
0	47014	8.922002129071	3
0	47078	8.930490129071	2
0	47183	8.949960129071	3
0	47198	8.958448129071	2
0	47279	8.967747129763	3
0	47303	8.976235129763	2
0	47358	8.977845129763	3
0	47411	8.986333129763	2
0	47454	8.986834130455	3
0	47503	8.995322130455	2
0	47579	9.004641131147	3
0	47613	9.013129131147	2
0	47697	9.022448465403	3
0	47764	9.030936465403	2
0	47775	9.031346465403	3
0	47847	9.039834465403	2
0	47894	9.042964465403	3
0	47949	9.051452465403	2
0	48062	9.066541466095	3
0	48126	9.075029466095	2
0	48136	9.075979466095	3
0	48190	9.084467466095	2
0	48366	9.117314466787	3
0	48420	9.125802466787	2
0	48431	9.126152466787	3
0	48484	9.134640466787	2
0	48641	9.152608801735	3
0	48662	9.161096801735	2
0	48717	9.162446801735	3
0	48761	9.170934801735	2
0	48783	9.172464801735	3
0	48838	9.180952801735	2
0	48871	9.181733802427	3
0	48923	9.190221802427	2
0	48954	9.190622803119	3
0	49008	9.199110803119	2
0	49107	9.208069803811	3
0	49139	9.216557803811	2
0	49241	9.225757138067	3
0	49283	9.234245138067	2
0	49343	9.234846138759	3
0	49364	9.243334138759	2
0	49436	9.252353139451	3
0	49473	9.260841139451	2
0	49506	9.261391139451	3
0	49542	9.269879139451	2
0	49595	9.270620140143	3
0	49628	9.279108140143	2
0	49684	9.279569140835	3
0	49705	9.288057140835	2
0	49738	9.288518141527	3
0	49762	9.297006141527	2
0	49795	9.297887142219	3
0	49806	9.306375142219	2
0	49840	9.307176142911	3
0	49858	9.315664142911	2
0	49892	9.316505143603	3
0	49902	9.324993143603	2
0	49935	9.325634144295	3
0	49946	9.334122144295	2
0	49979	9.334943144987	3
0	49998	9.343431144987	2
0	50031	9.343792145679	3
0	50046	9.352280145679	2
0	50121	9.361619146371	3
0	50158	9.370107146371	2
0	50214	9.371697146371	3
0	50258	9.380185146371	2
0	50302	9.380906147063	3
0	50343	9.389394147063	2
0	50377	9.389755147755	3
0	50396	9.398243147755	2
0	50429	9.398804148447	3
0	50441	9.407292148447	2
0	50474	9.408113149139	3
0	50485	9.416601149139	2
0	50518	9.417202149831	3
0	50529	9.425690149831	2
0	50562	9.426011150523	3
0	50573	9.434499150523	2
0	50606	9.435020151215	3
0	50617	9.443508151215	2
0	50650	9.444269151907	3
0	50665	9.452757151907	2
0	50699	9.453578152599	3
0	50709	9.462066152599	2
0	50742	9.462447153291	3
0	50765	9.470935153291	2
0	50798	9.471496153983	3
0	50809	9.479984153983	2
0	50842	9.480865154675	3
0	50861	9.489353154675	2
0	50895	9.490234155367	3
0	50917	9.498722155367	2
0	50950	9.499243156059	3
0	50965	9.507731156059	2
0	50998	9.508532156751	3
0	51013	9.517020156751	2
0	51046	9.517481157443	3
0	51061	9.525969157443	2
0	51094	9.526710158135	3
0	51105	9.535198158135	2
0	51176	9.544577158827	3
0	51213	9.553065158827	2
0	51267	9.554395158827	3
0	51312	9.562883158827	2
0	51357	9.563804159519	3
0	51398	9.572292159519	2
0	51434	9.573173160211	3
0	51443	9.581661160211	2
0	51478	9.582502160903	3
0	51492	9.590990160903	2
0	51525	9.591451161595	3
0	51536	9.599939161595	2
0	51569	9.600760162287	3
0	51588	9.609248162287	2
0	51622	9.610149162979	3
0	51636	9.618637162979	2
0	51670	9.619418163671	3
0	51680	9.627906163671	2
0	51713	9.628587164363	3
0	51724	9.637075164363	2
0	51757	9.637436165055	3
0	51772	9.645924165055	2
0	51805	9.646525165747	3
0	51816	9.655013165747	2
0	51849	9.655634166439	3
0	51860	9.664122166439	2
0	51893	9.664883167131	3
0	51904	9.673371167131	2
0	51937	9.673812167823	3
0	51948	9.682300167823	2
0	51981	9.683021168515	3
0	51992	9.691509168515	2
0	52025	9.691870169207	3
0	52048	9.700358169207	2
0	52081	9.700679169899	3
0	52100	9.709167169899	2
0	52133	9.709808170591	3
0	52148	9.718296170591	2
0	52181	9.718617171283	3
0	52192	9.727105171283	2
0	52225	9.727446171975	3
0	52236	9.735934171975	2
0	52269	9.736835172667	3
0	52280	9.745323172667	2
0	52318	9.745944173359	3
0	52328	9.754432173359	2
0	52361	9.754953174051	3
0	52376	9.763441174051	2
0	52413	9.764022174743	3
0	52424	9.772510174743	2
0	52457	9.773291175435	3
0	52468	9.781779175435	2
0	52501	9.782480176127	3
0	52512	9.790968176127	2
0	52579	9.799947176819	3
0	52624	9.808435176819	2
0	52673	9.809245176819	3
0	52697	9.817733176819	2
0	52750	9.818054177511	3
0	52783	9.826542177511	2
0	52848	9.827303178203	3
0	52865	9.835791178203	2
0	52898	9.836252178895	3
0	52910	9.844740178895	2
0	52943	9.845601179587	3
0	52954	9.854089179587	2
0	52987	9.854470180279	3
0	53006	9.862958180279	2
0	53039	9.863859180971	3
0	53058	9.872347180971	2
0	53091	9.872668181663	3
0	53106	9.881156181663	2
0	53139	9.881977182355	3
0	53150	9.890465182355	2
0	53183	9.891086183047	3
0	53202	9.899574183047	2
0	53235	9.900035183739	3
0	53246	9.908523183739	2
0	53279	9.908884184431	3
0	53290	9.917372184431	2
0	53323	9.917853185123	3
0	53334	9.926341185123	2
0	53371	9.926982185815	3
0	53382	9.935470185815	2
0	53416	9.936391186507	3
0	53426	9.944879186507	2
0	53464	9.945720187199	3
0	53478	9.954208187199	2
0	53511	9.954769187891	3
0	53522	9.963257187891	2
0	53555	9.963878188583	3
0	53566	9.972366188583	2
0	53599	9.973147189275	3
0	53610	9.981635189275	2
0	53644	9.982456189967	3
0	53658	9.990944189967	2
0	53692	9.991865190659	3
0	53722	10.000353190659	2
0	53755	10.000734191351	3
0	53770	10.009222191351	2
0	53803	10.010123192043	3
0	53818	10.018611192043	2
0	53852	10.019412192735	3
0	53866	10.027900192735	2
0	53900	10.028741193427	3
0	53914	10.037229193427	2
0	53948	10.037950194119	3
0	53958	10.046438194119	2
0	53991	10.047199194811	3
0	54002	10.055687194811	2
0	54036	10.056468195503	3
0	54050	10.064956195503	2
0	54083	10.065477196195	3
0	54094	10.073965196195	2
0	54127	10.074366196887	3
0	54146	10.082854196887	2
0	54179	10.083615197579	3
0	54190	10.092103197579	2
0	54224	10.092884198271	3
0	54238	10.101372198271	2
0	54272	10.102233198963	3
0	54282	10.110721198963	2
0	54316	10.111482199655	3
0	54334	10.119970199655	2
0	54371	10.120631200347	3
0	54386	10.129119200347	2
0	54468	10.138518201039	3
0	54497	10.147006201039	2
0	54530	10.147676201039	3
0	54566	10.156164201039	2
0	54662	10.165503201731	3
0	54714	10.173991201731	2
0	54747	10.174432202423	3
0	54762	10.182920202423	2
0	54797	10.183421203115	3
0	54825	10.191909203115	2
0	54925	10.202068537371	3
0	54983	10.210556537371	2
0	54995	10.212406537371	3
0	55049	10.220894537371	2
0	55292	10.251379538063	3
0	55355	10.259867538063	2
0	55443	10.275904872319	3
0	55495	10.284392872319	2
0	55602	10.293771873011	3
0	55639	10.302259873011	2
0	55649	10.302849873011	3
0	55711	10.311337873011	2
0	55744	10.312007873011	3
0	55776	10.320495873011	2
0	55833	10.321356873703	3
0	55857	10.329844873703	2
0	55890	10.330285874395	3
0	55906	10.338773874395	2
0	55939	10.339614875087	3
0	55954	10.348102875087	2
0	56021	10.357561875779	3
0	56054	10.366049875779	2
0	56099	10.366819875779	3
0	56119	10.375307875779	2
0	56184	10.376048876471	3
0	56205	10.384536876471	2
0	56238	10.384997877163	3
0	56282	10.393485877163	2
0	56315	10.394086877855	3
0	56330	10.402574877855	2
0	56363	10.402895878547	3
0	56374	10.411383878547	2
0	56407	10.411764879239	3
0	56426	10.420252879239	2
0	56459	10.420733879931	3
0	56474	10.429221879931	2
0	56507	10.430122880623	3
0	56526	10.438610880623	2
0	56560	10.439231881315	3
0	56570	10.447719881315	2
0	56603	10.448120882007	3
0	56618	10.456608882007	2
0	56655	10.457489882699	3
0	56674	10.465977882699	2
0	56707	10.466358883391	3
0	56722	10.474846883391	2
0	56755	10.475187884083	3
0	56766	10.483675884083	2
0	56837	10.492634884775	3
0	56870	10.501122884775	2
0	56915	10.502092884775	3
0	56943	10.510580884775	2
0	57008	10.511121885467	3
0	57033	10.519609885467	2
0	57098	10.520530886159	3
0	57111	10.529018886159	2
0	57144	10.529519886851	3
0	57157	10.538007886851	2
0	57241	10.547426887543	3
0	57265	10.555914887543	2
0	57348	10.564914221799	3
0	57414	10.573402221799	2
0	57425	10.574032221799	3
0	57487	10.582520221799	2
0	57544	10.585150221799	3
0	57588	10.593638221799	2
0	57715	10.602777222491	3
0	57737	10.611265222491	2
0	57904	10.629582556747	3
0	57958	10.638070556747	2
0	57969	10.638620556747	3
0	58027	10.647108556747	2
0	58152	10.660617557439	3
0	58187	10.669105557439	2
0	58547	10.721818894463	3
0	58609	10.730306894463	2
0	58856	10.770762563667	3
0	58915	10.779250563667	2
0	59149	10.819006232871	3
0	59204	10.827494232871	2
0	59299	10.841143233563	3
0	59362	10.849631233563	2
0	59372	10.850401233563	3
0	59434	10.858889233563	2
0	59527	10.868278234255	3
0	59585	10.876766234255	2
0	59598	10.877436234255	3
0	59624	10.885924234255	2
0	59740	10.895573568511	3
0	59770	10.904061568511	2
0	59814	10.904431568511	3
0	59848	10.912919568511	2
0	60036	10.934548237023	3
0	60102	10.943036237023	2
0	60181	10.954666237023	3
0	60245	10.963154237023	2
0	60301	10.972364237023	3
0	60354	10.980852237023	2
0	60392	10.981453237715	3
0	60433	10.989941237715	2
0	60467	10.990742238407	3
0	60478	10.999230238407	2
0	60511	10.999711239099	3
0	60533	11.008199239099	2
0	60566	11.008600239791	3
0	60577	11.017088239791	2
0	60610	11.017429240483	3
0	60624	11.025917240483	2
0	60657	11.026478241175	3
0	60668	11.034966241175	2
0	60701	11.035367241867	3
0	60718	11.043855241867	2
0	60791	11.052914242559	3
0	60833	11.061402242559	2
0	60843	11.062072242559	3
0	60903	11.070560242559	2
0	60948	11.071410242559	3
0	60977	11.079898242559	2
0	61034	11.080619243251	3
0	61057	11.089107243251	2
0	61090	11.089828243943	3
0	61105	11.098316243943	2
0	61138	11.098737244635	3
0	61149	11.107225244635	2
0	61182	11.107746245327	3
0	61199	11.116234245327	2
0	61232	11.116755246019	3
0	61243	11.125243246019	2
0	61276	11.125664246711	3
0	61293	11.134152246711	2
0	61326	11.135033247403	3
0	61337	11.143521247403	2
0	61372	11.144422248095	3
0	61384	11.152910248095	2
0	61418	11.153531248787	3
0	61428	11.162019248787	2
0	61461	11.162360249479	3
0	61481	11.170848249479	2
0	61514	11.171449250171	3
0	61532	11.179937250171	2
0	61565	11.180518250863	3
0	61586	11.189006250863	2
0	61619	11.189387251555	3
0	61633	11.197875251555	2
0	61666	11.198576252247	3
0	61677	11.207064252247	2
0	61711	11.207985252939	3
0	61721	11.216473252939	2
0	61755	11.217134253631	3
0	61768	11.225622253631	2
0	61801	11.226383254323	3
0	61812	11.234871254323	2
0	61848	11.235452255015	3
0	61868	11.243940255015	2
0	61901	11.244421255707	3
0	61915	11.252909255707	2
0	61948	11.253450256399	3
0	61959	11.261938256399	2
0	61992	11.262339257091	3
0	62003	11.270827257091	2
0	62036	11.271708257783	3
0	62047	11.280196257783	2
0	62080	11.280757258475	3
0	62094	11.289245258475	2
0	62127	11.289726259167	3
0	62138	11.298214259167	2
0	62174	11.298855259859	3
0	62185	11.307343259859	2
0	62218	11.307804260551	3
0	62232	11.316292260551	2
0	62268	11.317193261243	3
0	62279	11.325681261243	2
0	62313	11.326302261935	3
0	62326	11.334790261935	2
0	62359	11.335331262627	3
0	62376	11.343819262627	2
0	62409	11.344620263319	3
0	62426	11.353108263319	2
0	62460	11.353929264011	3
0	62470	11.362417264011	2
0	62504	11.363258264703	3
0	62514	11.371746264703	2
0	62547	11.372287265395	3
0	62561	11.380775265395	2
0	62594	11.381636266087	3
0	62605	11.390124266087	2
0	62638	11.390565266779	3
0	62649	11.399053266779	2
0	62682	11.399574267471	3
0	62693	11.408062267471	2
0	62726	11.408503268163	3
0	62737	11.416991268163	2
0	62770	11.417352268855	3
0	62784	11.425840268855	2
0	62817	11.426321269547	3
0	62828	11.434809269547	2
0	62861	11.435550270239	3
0	62875	11.444038270239	2
0	62908	11.444739270931	3
0	62919	11.453227270931	2
0	62952	11.453748271623	3
0	62963	11.462236271623	2
0	62996	11.462877272315	3
0	63010	11.471365272315	2
0	63043	11.471666273007	3
0	63054	11.480154273007	2
0	63140	11.489513273699	3
0	63160	11.498001273699	2
0	63404	11.525147942211	3
0	63442	11.533635942211	2
0	63573	11.543615276467	3
0	63620	11.552103276467	2
0	63705	11.563462610723	3
0	63726	11.571950610723	2
0	63860	11.584969944979	3
0	63924	11.593457944979	2
0	63934	11.594727944979	3
0	63992	11.603215944979	2
0	64147	11.627084945671	3
0	64201	11.635572945671	2
0	64431	11.669569280619	3
0	64489	11.678057280619	2
0	64500	11.678507280619	3
0	64562	11.686995280619	2
0	64593	11.688385280619	3
0	64658	11.696873280619	2
0	64673	11.697923280619	3
0	64727	11.706411280619	2
0	64893	11.725598281311	3
0	64955	11.734086281311	2
0	65182	11.768282616259	3
0	65247	11.776770616259	2
0	65451	11.808916951207	3
0	65506	11.817404951207	2
0	65753	11.860100620411	3
0	65808	11.868588620411	2
0	65998	11.903894955359	3
0	66053	11.912382955359	2
0	66140	11.921631956051	3
0	66199	11.930119956051	2
0	66220	11.930949956051	3
0	66269	11.939437956051	2
0	66366	11.949886956743	3
0	66431	11.958374956743	2
0	66442	11.961224956743	3
0	66497	11.969712956743	2
0	66577	11.981981957435	3
0	66620	11.990469957435	2
0	66653	11.990950958127	3
0	66663	11.999438958127	2
0	66696	11.999759958819	3
0	66727	12.008247958819	2
0	66816	12.017626959511	3
0	66849	12.026114959511	2
0	66930	12.035163960203	3
0	66972	12.043651960203	2
0	67112	12.061770962279	3
0	67145	12.070258962279	2
0	67155	12.071408962279	3
0	67213	12.079896962279	2
0	67303	12.090745962971	3
0	67356	12.099233962971	2
0	67540	12.127210631483	3
0	67596	12.135698631483	2
0	67630	12.136399632175	3
0	67666	12.144887632175	2
0	67700	12.145488632867	3
0	67756	12.153976632867	2
0	67787	12.154517633559	3
0	67847	12.163005633559	2
0	67883	12.163606634251	3
0	67926	12.172094634251	2
0	67959	12.172415634943	3
0	67970	12.180903634943	2
0	68003	12.181304635635	3
0	68014	12.189792635635	2
0	68047	12.190093636327	3
0	68064	12.198581636327	2
0	68131	12.207840637019	3
0	68164	12.216328637019	2
0	68197	12.216938637019	3
0	68232	12.225426637019	2
0	68285	12.225827637711	3
0	68321	12.234315637711	2
0	68386	12.235216638403	3
0	68398	12.243704638403	2
0	68431	12.244245639095	3
0	68449	12.252733639095	2
0	68482	12.253494639787	3
0	68493	12.261982639787	2
0	68527	12.262883640479	3
0	68546	12.271371640479	2
0	68580	12.272092641171	3
0	68590	12.280580641171	2
0	68624	12.281461641863	3
0	68640	12.289949641863	2
0	68674	12.290830642555	3
0	68685	12.299318642555	2
0	68718	12.299699643247	3
0	68733	12.308187643247	2
0	68766	12.308788643939	3
0	68780	12.317276643939	2
0	68863	12.326635644631	3
0	68892	12.335123644631	2
0	68925	12.335613644631	3
0	68960	12.344101644631	2
0	69015	12.344782645323	3
0	69060	12.353270645323	2
0	69100	12.353900645323	3
0	69159	12.362388645323	2
0	69370	12.381505979579	3
0	69390	12.389993979579	2
0	69525	12.400873313835	3
0	69580	12.409361313835	2
0	69753	12.438068983039	3
0	69807	12.446556983039	2
0	69818	12.447926983039	3
0	69872	12.456414983039	2
0	70096	12.487861317987	3
0	70159	12.496349317987	2
0	70347	12.522085986499	3
0	70412	12.530573986499	2
0	70423	12.531523986499	3
0	70491	12.540011986499	2
0	70503	12.540701986499	3
0	70568	12.549189986499	2
0	70652	12.559878987191	3
0	70706	12.568366987191	2
0	70728	12.570456987191	3
0	70740	12.578944987191	2
0	70783	12.579745987883	3
0	70818	12.588233987883	2
0	70852	12.588983987883	3
0	70906	12.597471987883	2
0	70929	12.599341987883	3
0	70997	12.607829987883	2
0	71008	12.609039987883	3
0	71061	12.617527987883	2
0	71144	12.632716988575	3
0	71190	12.641204988575	2
0	71223	12.641605989267	3
0	71243	12.650093989267	2
0	71276	12.650814989959	3
0	71290	12.659302989959	2
0	71323	12.659723990651	3
0	71346	12.668211990651	2
0	71379	12.668832991343	3
0	71393	12.677320991343	2
0	71426	12.678201992035	3
0	71440	12.686689992035	2
0	71474	12.687330992727	3
0	71487	12.695818992727	2
0	71520	12.696619993419	3
0	71531	12.705107993419	2
0	71564	12.705508994111	3
0	71575	12.713996994111	2
0	71608	12.714337994803	3
0	71619	12.722825994803	2
0	71652	12.723186995495	3
0	71663	12.731674995495	2
0	71696	12.732195996187	3
0	71710	12.740683996187	2
0	71743	12.741044996879	3
0	71754	12.749532996879	2
0	71787	12.750313997571	3
0	71804	12.758801997571	2
0	71838	12.759642998263	3
0	71851	12.768130998263	2
0	71884	12.768451998955	3
0	71898	12.776939998955	2
0	71934	12.777760999647	3
0	71945	12.786248999647	2
0	71978	12.786690000339	3
0	71998	12.795178000339	2
0	72031	12.795559001031	3
0	72042	12.804047001031	2
0	72075	12.804788001723	3
0	72089	12.813276001723	2
0	72122	12.813957002415	3
0	72133	12.822445002415	2
0	72166	12.822806003107	3
0	72180	12.831294003107	2
0	72213	12.831895003799	3
0	72224	12.840383003799	2
0	72257	12.841024004491	3
0	72268	12.849512004491	2
0	72301	12.850373005183	3
0	72312	12.858861005183	2
0	72345	12.859362005875	3
0	72356	12.867850005875	2
0	72389	12.868471006567	3
0	72403	12.876959006567	2
0	72436	12.877740007259	3
0	72447	12.886228007259	2
0	72481	12.887149007951	3
0	72494	12.895637007951	2
0	72528	12.896278008643	3
0	72541	12.904766008643	2
0	72574	12.905067009335	3
0	72585	12.913555009335	2
0	72618	12.913876010027	3
0	72629	12.922364010027	2
0	72662	12.922785010719	3
0	72673	12.931273010719	2
0	72706	12.931654011411	3
0	72720	12.940142011411	2
0	72753	12.940983012103	3
0	72764	12.949471012103	2
0	72800	12.950072012795	3
0	72811	12.958560012795	2
0	72844	12.959361013487	3
0	72855	12.967849013487	2
0	72922	12.977068014179	3
0	72955	12.985556014179	2
0	73009	12.986226014179	3
0	73045	12.994714014179	2
0	73099	12.995295014871	3
0	73142	13.003783014871	2
0	73184	13.004084015563	3
0	73200	13.012572015563	2
0	73236	13.013453016255	3
0	73249	13.021941016255	2
0	73285	13.022542016947	3
0	73305	13.031030016947	2
0	73338	13.031731017639	3
0	73352	13.040219017639	2
0	73441	13.049678018331	3
0	73474	13.058166018331	2
0	73506	13.058576018331	3
0	73545	13.067064018331	2
0	73666	13.076303019023	3
0	73704	13.084791019023	2
0	73749	13.085521019023	3
0	73771	13.094009019023	2
0	73824	13.094410019715	3
0	73860	13.102898019715	2
0	73980	13.112337020407	3
0	74005	13.120825020407	2
0	74164	13.138642354663	3
0	74231	13.147130354663	2
0	74262	13.148340354663	3
0	74317	13.156828354663	2
0	74332	13.158198354663	3
0	74385	13.166686354663	2
0	74397	13.167496354663	3
0	74451	13.175984354663	2
0	74485	13.176885355355	3
0	74541	13.185373355355	2
0	74572	13.185794356047	3
0	74607	13.194282356047	2
0	74706	13.203681356739	3
0	74758	13.212169356739	2
0	74791	13.212730357431	3
0	74834	13.221218357431	2
0	74867	13.222119358123	3
0	74881	13.230607358123	2
0	74914	13.231028358815	3
0	74928	13.239516358815	2
0	74961	13.240217359507	3
0	74975	13.248705359507	2
0	75055	13.257964360199	3
0	75075	13.266452360199	2
0	75189	13.276391694455	3
0	75213	13.284879694455	2
0	75269	13.285200695147	3
0	75290	13.293688695147	2
0	75323	13.294189695839	3
0	75339	13.302677695839	2
0	75372	13.303278696531	3
0	75383	13.311766696531	2
0	75450	13.321105697223	3
0	75483	13.329593697223	2
0	75527	13.330423697223	3
0	75551	13.338911697223	2
0	75604	13.339212697915	3
0	75643	13.347700697915	2
0	75676	13.348341698607	3
0	75721	13.356829698607	2
0	75754	13.357190699299	3
0	75768	13.365678699299	2
0	75801	13.366319699991	3
0	75815	13.374807699991	2
0	75848	13.375328700683	3
0	75865	13.383816700683	2
0	75898	13.384317701375	3
0	75909	13.392805701375	2
0	75942	13.393226702067	3
0	75959	13.401714702067	2
0	75992	13.402095702759	3
0	76009	13.410583702759	2
0	76042	13.410884703451	3
0	76053	13.419372703451	2
0	76086	13.419673704143	3
0	76097	13.428161704143	2
0	76130	13.428622704835	3
0	76141	13.437110704835	2
0	76174	13.437471705527	3
0	76185	13.445959705527	2
0	76218	13.446380706219	3
0	76229	13.454868706219	2
0	76262	13.455269706911	3
0	76276	13.463757706911	2
0	76357	13.472976707603	3
0	76378	13.481464707603	2
0	76457	13.490704041859	3
0	76529	13.499192041859	2
0	76572	13.500542041859	3
0	76602	13.509030041859	2
0	76729	13.521349376115	3
0	76772	13.529837376115	2
0	76805	13.530498376807	3
0	76821	13.538986376807	2
0	76901	13.548245377499	3
0	76924	13.556733377499	2
0	76956	13.557283377499	3
0	76994	13.565771377499	2
0	77068	13.566552378191	3
0	77106	13.575040378191	2
0	77186	13.583919378883	3
0	77221	13.592407378883	2
0	77353	13.602426713139	3
0	77402	13.610914713139	2
0	77436	13.613744713139	3
0	77492	13.622232713139	2
0	77572	13.633581713831	3
0	77618	13.642069713831	2
0	77651	13.642930714523	3
0	77664	13.651418714523	2
0	77698	13.652179715215	3
0	77708	13.660667715215	2
0	77741	13.661048715907	3
0	77755	13.669536715907	2
0	77825	13.678755716599	3
0	77858	13.687243716599	2
0	77891	13.688133716599	3
0	77923	13.696621716599	2
0	77954	13.697082717291	3
0	78009	13.705570717291	2
0	78042	13.706291717983	3
0	78088	13.714779717983	2
0	78121	13.715140718675	3
0	78132	13.723628718675	2
0	78165	13.724229719367	3
0	78176	13.732717719367	2
0	78209	13.733118720059	3
0	78220	13.741606720059	2
0	78253	13.742087720751	3
0	78264	13.750575720751	2
0	78297	13.751436721443	3
0	78308	13.759924721443	2
0	78342	13.760665722135	3
0	78358	13.769153722135	2
0	78391	13.769814722827	3
0	78402	13.778302722827	2
0	78435	13.778663723519	3
0	78446	13.787151723519	2
0	78479	13.787732724211	3
0	78490	13.796220724211	2
0	78523	13.796701724903	3
0	78534	13.805189724903	2
0	78567	13.805830725595	3
0	78581	13.814318725595	2
0	78654	13.823597726287	3
0	78687	13.832085726287	2
0	78732	13.833295726287	3
0	78755	13.841783726287	2
0	78832	13.842364726979	3
0	78869	13.850852726979	2
0	78911	13.851613727671	3
0	78930	13.860101727671	2
0	78964	13.860782728363	3
0	78979	13.869270728363	2
0	79013	13.870191729055	3
0	79023	13.878679729055	2
0	79057	13.879280729747	3
0	79067	13.887768729747	2
0	79100	13.888369730439	3
0	79111	13.896857730439	2
0	79144	13.897178731131	3
0	79158	13.905666731131	2
0	79191	13.906127731823	3
0	79205	13.914615731823	2
0	79238	13.915376732515	3
0	79255	13.923864732515	2
0	79288	13.924165733207	3
0	79302	13.932653733207	2
0	79335	13.933394733899	3
0	79349	13.941882733899	2
0	79382	13.942443734591	3
0	79396	13.950931734591	2
0	79429	13.951292735283	3
0	79443	13.959780735283	2
0	79476	13.960141735975	3
0	79490	13.968629735975	2
0	79526	13.969150736667	3
0	79541	13.977638736667	2
0	79574	13.978159737359	3
0	79585	13.986647737359	2
0	79621	13.987328738051	3
0	79632	13.995816738051	2
0	79665	13.996317738743	3
0	79684	14.004805738743	2
0	79717	14.005186739435	3
0	79728	14.013674739435	2
0	79761	14.014555740127	3
0	79772	14.023043740127	2
0	79809	14.023904740819	3
0	79825	14.032392740819	2
0	79858	14.033033741511	3
0	79872	14.041521741511	2
0	79905	14.042002742203	3
0	79919	14.050490742203	2
0	79952	14.050951742895	3
0	79966	14.059439742895	2
0	79999	14.060020743587	3
0	80013	14.068508743587	2
0	80046	14.068929744279	3
0	80057	14.077417744279	2
0	80090	14.078338744971	3
0	80101	14.086826744971	2
0	80135	14.087507745663	3
0	80145	14.095995745663	2
0	80178	14.096316746355	3
0	80189	14.104804746355	2
0	80222	14.105405747047	3
0	80239	14.113893747047	2
0	80272	14.114794747739	3
0	80283	14.123282747739	2
0	80316	14.123643748431	3
0	80328	14.132131748431	2
0	80361	14.132892749123	3
0	80375	14.141380749123	2
0	80408	14.141821749815	3
0	80425	14.150309749815	2
0	80461	14.150770750507	3
0	80472	14.159258750507	2
0	80505	14.160179751199	3
0	80516	14.168667751199	2
0	80600	14.178086751891	3
0	80627	14.186574751891	2
0	80726	14.196054086147	3
0	80759	14.204542086147	2
0	80792	14.205063086839	3
0	80840	14.213551086839	2
0	80918	14.222670087531	3
0	80939	14.231158087531	2
0	81016	14.240377421787	3
0	81073	14.248865421787	2
0	81106	14.249166422479	3
0	81152	14.257654422479	2
0	81185	14.258435423171	3
0	81199	14.266923423171	2
0	81232	14.267384423863	3
0	81243	14.275872423863	2
0	81276	14.276353424555	3
0	81293	14.284841424555	2
0	81326	14.285362425247	3
0	81346	14.293850425247	2
0	81419	14.302809425939	3
0	81452	14.311297425939	2
0	81509	14.312607425939	3
0	81554	14.321095425939	2
0	81599	14.321996426631	3
0	81643	14.330484426631	2
0	81677	14.330905427323	3
0	81688	14.339393427323	2
0	81722	14.339934428015	3
0	81736	14.348422428015	2
0	81769	14.348803428707	3
0	81780	14.357291428707	2
0	81813	14.357752429399	3
0	81824	14.366240429399	2
0	81857	14.366721430091	3
0	81868	14.375209430091	2
0	81949	14.384348430783	3
0	81973	14.392836430783	2
0	82075	14.402315765039	3
0	82114	14.410803765039	2
0	82239	14.420202765731	3
0	82273	14.428690765731	2
0	82486	14.455587100679	3
0	82521	14.464075100679	2
0	82567	14.464865100679	3
0	82587	14.473353100679	2
0	82663	14.474274101371	3
0	82701	14.482762101371	2
0	82757	14.483952101371	3
0	82812	14.492440101371	2
0	82894	14.501509102063	3
0	82945	14.509997102063	2
0	82979	14.510778102755	3
0	82989	14.519266102755	2
0	83023	14.519847103447	3
0	83034	14.528335103447	2
0	83067	14.528836104139	3
0	83078	14.537324104139	2
0	83111	14.538065104831	3
0	83125	14.546553104831	2
0	83158	14.547034105523	3
0	83172	14.555522105523	2
0	83205	14.556043106215	3
0	83216	14.564531106215	2
0	83249	14.565392106907	3
0	83263	14.573880106907	2
0	83296	14.574241107599	3
0	83310	14.582729107599	2
0	83402	14.592088108291	3
0	83435	14.600576108291	2
0	83536	14.610685108983	3
0	83580	14.619173108983	2
0	83661	14.628432109675	3
0	83683	14.636920109675	2
0	83694	14.637290109675	3
0	83750	14.645778109675	2
0	83917	14.664985110367	3
0	83962	14.673473110367	2
0	84190	14.704289445315	3
0	84248	14.712777445315	2
0	84791	14.782779450851	3
0	84849	14.791267450851	2
0	85071	14.822874451543	3
0	85134	14.831362451543	2
0	85273	14.852147785799	3
0	85337	14.860635785799	2
0	85659	14.906569788567	3
0	85714	14.915057788567	2
0	85791	14.923766789259	3
0	85843	14.932254789259	2
0	85875	14.933404789259	3
0	85907	14.941892789259	2
0	86021	14.952081789951	3
0	86083	14.960569789951	2
0	86178	14.970738790643	3
0	86236	14.979226790643	2
0	86256	14.985516790643	3
0	86314	14.994004790643	2
0	86548	15.033981125591	3
0	86606	15.042469125591	2
0	86732	15.057158126283	3
0	86766	15.065646126283	2
0	87053	15.107538794795	3
0	87118	15.116026794795	2
0	87129	15.116556794795	3
0	87191	15.125044794795	2
0	87203	15.126634794795	3
0	87266	15.135122794795	2
0	87278	15.135812794795	3
0	87334	15.144300794795	2
0	87455	15.153639795487	3
0	87475	15.162127795487	2
0	87508	15.162897795487	3
0	87546	15.171385795487	2
0	87693	15.180684796179	3
0	87731	15.189172796179	2
0	87776	15.189762796179	3
0	87798	15.198250796179	2
0	87863	15.198851796871	3
0	87896	15.207339796871	2
0	88018	15.216778797563	3
0	88058	15.225266797563	2
0	88148	15.234735798255	3
0	88178	15.243223798255	2
0	88412	15.270172134587	3
0	88454	15.278660134587	2
0	88490	15.280730134587	3
0	88548	15.289218134587	2
0	88628	15.299267135279	3
0	88682	15.307755135279	2
0	88716	15.308376135971	3
0	88768	15.316864135971	2
0	88799	15.317205136663	3
0	88856	15.325693136663	2
0	88889	15.326254137355	3
0	88945	15.334742137355	2
0	88978	15.335083138047	3
0	89024	15.343571138047	2
0	89091	15.352750138739	3
0	89127	15.361238138739	2
0	89137	15.361608138739	3
0	89191	15.370096138739	2
0	89316	15.379925139431	3
0	89352	15.388413139431	2
0	89563	15.407210473687	3
0	89600	15.415698473687	2
0	89695	15.425007474379	3
0	89725	15.433495474379	2
0	90315	15.529337816247	3
0	90382	15.537825816247	2
0	90572	15.566992484759	3
0	90643	15.575480484759	2
0	90790	15.596169485451	3
0	90861	15.604657485451	2
0	90872	15.605227485451	3
0	90934	15.613715485451	2
0	90946	15.614185485451	3
0	91002	15.622673485451	2
0	91036	15.623374486143	3
0	91097	15.631862486143	2
0	91117	15.632312486143	3
0	91145	15.640800486143	2
0	91158	15.642930486143	3
0	91214	15.651418486143	2
0	91304	15.664947486835	3
0	91370	15.673435486835	2
0	91380	15.676105486835	3
0	91436	15.684593486835	2
0	91560	15.698983486835	3
0	91622	15.707471486835	2
0	91632	15.714741486835	3
0	91687	15.723229486835	2
0	91899	15.750582823859	3
0	91929	15.759070823859	2
0	91983	15.759760823859	3
0	92020	15.768248823859	2
0	92053	15.768549824551	3
0	92108	15.777037824551	2
0	92119	15.777647824551	3
0	92153	15.786135824551	2
0	92170	15.788725824551	3
0	92231	15.797213824551	2
0	92274	15.797934825243	3
0	92328	15.806422825243	2
0	92342	15.807512825243	3
0	92352	15.816000825243	2
0	92391	15.816601825935	3
0	92400	15.825089825935	2
0	92434	15.825770826627	3
0	92457	15.834258826627	2
0	92468	15.834648826627	3
0	92522	15.843136826627	2
0	92589	15.844986826627	3
0	92634	15.853474826627	2
0	92744	15.863823827319	3
0	92794	15.872311827319	2
0	93259	15.955075502059	3
0	93313	15.963563502059	2
0	93638	16.008888170571	3
0	93692	16.017376170571	2
0	93739	16.017897171263	3
0	93796	16.026385171263	2
0	93807	16.026755171263	3
0	93844	16.035243171263	2
0	93901	16.038093171263	3
0	93950	16.046581171263	2
0	94048	16.057570171955	3
0	94113	16.066058171955	2
0	94252	16.085147172647	3
0	94272	16.093635172647	2
0	94405	16.111922506903	3
0	94472	16.120410506903	2
0	94482	16.121760506903	3
0	94537	16.130248506903	2
0	94692	16.152517507595	3
0	94749	16.161005507595	2
0	94763	16.161835507595	3
0	94829	16.170323507595	2
0	94840	16.170893507595	3
0	94902	16.179381507595	2
0	94914	16.181151507595	3
0	94972	16.189639507595	2
0	94983	16.190849507595	3
0	95039	16.199337507595	2
0	95099	16.206267507595	3
0	95154	16.214755507595	2
0	95681	16.284574508287	3
0	95724	16.293062508287	2
0	96029	16.340867845311	3
0	96084	16.349355845311	2
0	96341	16.385680180259	3
0	96370	16.394168180259	2
0	96417	16.395078180259	3
0	96437	16.403566180259	2
0	96490	16.403907180951	3
0	96540	16.412395180951	2
0	96646	16.421904515207	3
0	96668	16.430392515207	2
0	96780	16.440331849463	3
0	96826	16.448819849463	2
0	96884	16.451649849463	3
0	96944	16.460137849463	2
0	96954	16.464447849463	3
0	97009	16.472935849463	2
0	97268	16.502983186487	3
0	97313	16.511471186487	2
0	97735	16.558305189255	3
0	97785	16.566793189255	2
0	98095	16.622229194791	3
0	98116	16.630717194791	2
0	98127	16.631307194791	3
0	98196	16.639795194791	2
0	98207	16.640445194791	3
0	98280	16.648933194791	2
0	98318	16.651383194791	3
0	98358	16.659871194791	2
0	98371	16.661821194791	3
0	98424	16.670309194791	2
0	98510	16.680158195483	3
0	98567	16.688646195483	2
0	98714	16.715942863995	3
0	98770	16.724430863995	2
0	98800	16.724931864687	3
0	98869	16.733419864687	2
0	98926	16.734449864687	3
0	98948	16.742937864687	2
0	98978	16.743398865379	3
0	99045	16.751886865379	2
0	99230	16.770356201019	3
0	99295	16.778844201019	2
0	99330	16.781114201019	3
0	99363	16.789602201019	2
0	99554	16.825979204479	3
0	99596	16.834467204479	2
0	99740	16.851846538735	3
0	99805	16.860334538735	2
0	99929	16.877803539427	3
0	99966	16.886291539427	2
0	99976	16.887701539427	3
0	100036	16.896189539427	2
0	100235	16.921308207939	3
0	100290	16.929796207939	2
0	100301	16.930386207939	3
0	100371	16.938874207939	2
0	100383	16.940284207939	3
0	100451	16.948772207939	2
0	100463	16.950022207939	3
0	100520	16.958510207939	2
0	100532	16.961060207939	3
0	100586	16.969548207939	2
0	100652	16.973458207939	3
0	100712	16.981946207939	2
0	100831	17.000135208631	3
0	100863	17.008623208631	2
0	100939	17.017512209323	3
0	100992	17.026000209323	2
0	101092	17.045149543579	3
0	101144	17.053637543579	2
0	101164	17.054127543579	3
0	101185	17.062615543579	2
0	101196	17.063325543579	3
0	101250	17.071813543579	2
0	101263	17.073863543579	3
0	101327	17.082351543579	2
0	101338	17.084541543579	3
0	101400	17.093029543579	2
0	101463	17.102359543579	3
0	101519	17.110847543579	2
0	101591	17.116037543579	3
0	101661	17.124525543579	2
0	101806	17.146014544271	3
0	101869	17.154502544271	2
0	101882	17.158492544271	3
0	101942	17.166980544271	2
0	102021	17.176149544963	3
0	102075	17.184637544963	2
0	102107	17.185278545655	3
0	102160	17.193766545655	2
0	102192	17.194267546347	3
0	102235	17.202755546347	2
0	102267	17.203276547039	3
0	102283	17.211764547039	2
0	102315	17.212085547731	3
0	102326	17.220573547731	2
0	102358	17.220894548423	3
0	102375	17.229382548423	2
0	102407	17.229803549115	3
0	102418	17.238291549115	2
0	102450	17.238692549807	3
0	102467	17.247180549807	2
0	102533	17.256179550499	3
0	102572	17.264667550499	2
0	102627	17.266177550499	3
0	102671	17.274665550499	2
0	102714	17.275086551191	3
0	102762	17.283574551191	2
0	102844	17.293033551883	3
0	102874	17.301521551883	2
0	102976	17.311300886139	3
0	103009	17.319788886139	2
0	103124	17.329247886831	3
0	103146	17.337735886831	2
0	103179	17.338225886831	3
0	103211	17.346713886831	2
0	103331	17.356172887523	3
0	103351	17.364660887523	2
0	103383	17.365481888215	3
0	103398	17.373969888215	2
0	103467	17.383248888907	3
0	103500	17.391736888907	2
0	103554	17.393126888907	3
0	103602	17.401614888907	2
0	103646	17.402455889599	3
0	103693	17.410943889599	2
0	103726	17.411244890291	3
0	103737	17.419732890291	2
0	103810	17.428791890983	3
0	103843	17.437279890983	2
0	103955	17.447099225239	3
0	103980	17.455587225239	2
0	104044	17.456028225931	3
0	104055	17.464516225931	2
0	104087	17.465397226623	3
0	104099	17.473885226623	2
0	104131	17.474206227315	3
0	104142	17.482694227315	2
0	104174	17.483455228007	3
0	104185	17.491943228007	2
0	104218	17.492704228699	3
0	104231	17.501192228699	2
0	104263	17.501593229391	3
0	104277	17.510081229391	2
0	104309	17.510702230083	3
0	104329	17.519190230083	2
0	104362	17.520111230775	3
0	104372	17.528599230775	2
0	104404	17.529020231467	3
0	104415	17.537508231467	2
0	104447	17.538209232159	3
0	104461	17.546697232159	2
0	104496	17.547218232851	3
0	104510	17.555706232851	2
0	104542	17.556427233543	3
0	104556	17.564915233543	2
0	104588	17.565676234235	3
0	104599	17.574164234235	2
0	104632	17.574965234927	3
0	104645	17.583453234927	2
0	104677	17.583854235619	3
0	104688	17.592342235619	2
0	104720	17.592743236311	3
0	104737	17.601231236311	2
0	104769	17.601732237003	3
0	104780	17.610220237003	2
0	104812	17.611021237695	3
0	104829	17.619509237695	2
0	104861	17.620070238387	3
0	104872	17.628558238387	2
0	104904	17.629079239079	3
0	104915	17.637567239079	2
0	104947	17.638308239771	3
0	104958	17.646796239771	2
0	104990	17.647297240463	3
0	105001	17.655785240463	2
0	105033	17.656226241155	3
0	105047	17.664714241155	2
0	105079	17.665335241847	3
0	105090	17.673823241847	2
0	105122	17.674664242539	3
0	105136	17.683152242539	2
0	105169	17.683933243231	3
0	105179	17.692421243231	2
0	105212	17.693282243923	3
0	105222	17.701770243923	2
0	105255	17.702551244615	3
0	105265	17.711039244615	2
0	105300	17.711960245307	3
0	105320	17.720448245307	2
0	105470	17.739136913819	3
0	105509	17.747624913819	2
0	105542	17.748034913819	3
0	105579	17.756522913819	2
0	105696	17.766611914511	3
0	105760	17.775099914511	2
0	105911	17.798946915203	3
0	105987	17.807434915203	2
0	106171	17.836300249459	3
0	106214	17.844788249459	2
0	106246	17.845449250151	3
0	106264	17.853937250151	2
0	106296	17.854738250843	3
0	106307	17.863226250843	2
0	106339	17.863527251535	3
0	106353	17.872015251535	2
0	106385	17.872636252227	3
0	106396	17.881124252227	2
0	106428	17.881625252919	3
0	106442	17.890113252919	2
0	106474	17.890554253611	3
0	106488	17.899042253611	2
0	106520	17.899503254303	3
0	106534	17.907991254303	2
0	106566	17.908392254995	3
0	106577	17.916880254995	2
0	106609	17.917521255687	3
0	106623	17.926009255687	2
0	106655	17.926350256379	3
0	106666	17.934838256379	2
0	106698	17.935579257071	3
0	106715	17.944067257071	2
0	106748	17.944908257763	3
0	106758	17.953396257763	2
0	106790	17.953717258455	3
0	106801	17.962205258455	2
0	106833	17.963046259147	3
0	106847	17.971534259147	2
0	106880	17.972335259839	3
0	106890	17.980823259839	2
0	106922	17.981224260531	3
0	106936	17.989712260531	2
0	106968	17.990533261223	3
0	106979	17.999021261223	2
0	107011	17.999662261915	3
0	107030	18.008150261915	2
0	107062	18.008751262607	3
0	107073	18.017239262607	2
0	107105	18.017960263299	3
0	107116	18.026448263299	2
0	107148	18.026889263991	3
0	107162	18.035377263991	2
0	107228	18.044616264683	3
0	107270	18.053104264683	2
0	107390	18.062783598939	3
0	107440	18.071271598939	2
0	107507	18.080730599631	3
0	107541	18.089218599631	2
0	107586	18.090168599631	3
0	107612	18.098656599631	2
0	107675	18.099097600323	3
0	107703	18.107585600323	2
0	107767	18.108266601015	3
0	107786	18.116754601015	2
0	107819	18.117655601707	3
0	107834	18.126143601707	2
0	107867	18.126924602399	3
0	107877	18.135412602399	2
0	107909	18.135973603091	3
0	107920	18.144461603091	2
0	107952	18.145062603783	3
0	107966	18.153550603783	2
0	107998	18.153851604475	3
0	108012	18.162339604475	2
0	108044	18.163000605167	3
0	108061	18.171488605167	2
0	108094	18.172369605859	3
0	108104	18.180857605859	2
0	108136	18.181438606551	3
0	108147	18.189926606551	2
0	108179	18.190667607243	3
0	108196	18.199155607243	2
0	108228	18.199596607935	3
0	108239	18.208084607935	2
0	108271	18.208385608627	3
0	108282	18.216873608627	2
0	108314	18.217674609319	3
0	108330	18.226162609319	2
0	108365	18.226863610011	3
0	108376	18.235351610011	2
0	108408	18.235752610703	3
0	108419	18.244240610703	2
0	108451	18.244741611395	3
0	108468	18.253229611395	2
0	108500	18.253650612087	3
0	108511	18.262138612087	2
0	108543	18.262459612779	3
0	108557	18.270947612779	2
0	108589	18.271548613471	3
0	108603	18.280036613471	2
0	108635	18.280757614163	3
0	108649	18.289245614163	2
0	108681	18.289726614855	3
0	108695	18.298214614855	2
0	108727	18.298975615547	3
0	108738	18.307463615547	2
0	108770	18.307844616239	3
0	108784	18.316332616239	2
0	108816	18.317093616931	3
0	108833	18.325581616931	2
0	108865	18.326302617623	3
0	108879	18.334790617623	2
0	108911	18.335471618315	3
0	108925	18.343959618315	2
0	108957	18.344320619007	3
0	108968	18.352808619007	2
0	109000	18.353209619699	3
0	109014	18.361697619699	2
0	109046	18.362118620391	3
0	109060	18.370606620391	2
0	109095	18.371147621083	3
0	109106	18.379635621083	2
0	109138	18.380396621775	3
0	109152	18.388884621775	2
0	109184	18.389225622467	3
0	109195	18.397713622467	2
0	109227	18.398514623159	3
0	109247	18.407002623159	2
0	109280	18.407863623851	3
0	109290	18.416351623851	2
0	109323	18.417212624543	3
0	109336	18.425700624543	2
[...]
95	64709	11.705203782349	18
95	64752	11.713861782349	1049
95	64852	11.724148448093	1049
95	64938	11.733267782349	18
95	64980	11.741845782349	1049
95	65084	11.752743448785	1049
95	65221	11.770772117297	18
95	65275	11.779610117297	1049
95	65486	11.812906452245	18
95	65529	11.821584452245	1049
95	65788	11.862750121449	18
95	65834	11.871468121449	1049
95	66033	11.904824456397	18
95	66076	11.913702456397	1049
95	66260	11.939109457089	18
95	66304	11.948087457089	1049
95	66477	11.966784457781	18
95	66521	11.975562457781	1049
95	66871	12.026276460549	18
95	66909	12.034994460549	1049
95	67192	12.072620463317	18
95	67241	12.081698463317	1049
95	67488	12.125980798265	1049
95	67649	12.143558132521	1049
95	67692	12.145138799649	18
95	67804	12.161415466777	1049
95	67872	12.163256801033	18
95	68210	12.217110138057	18
95	68267	12.225808138057	1049
95	68346	12.234566805185	18
95	68938	12.335625145669	18
95	68995	12.344723145669	1049
95	69063	12.353270812105	1049
95	69205	12.362930146361	18
95	69245	12.371988146361	1049
95	69308	12.380876146361	1049
95	69434	12.390275480617	18
95	69471	12.398953480617	1049
95	69788	12.445518484077	18
95	69853	12.454847818333	18
95	69896	12.463445818333	1049
95	70033	12.482251484769	1049
95	70253	12.510248153281	18
95	70292	12.519086153281	1049
95	70439	12.537213487537	1049
95	70597	12.555180821793	1049
95	70831	12.588365488921	18
95	70866	12.597123488921	1049
95	71042	12.615710823177	18
95	71087	12.624548823177	1049
95	73027	12.994695515217	1049
95	73081	12.994965181653	18
95	73487	13.058247519369	18
95	73527	13.066845519369	1049
95	73582	13.067315185805	18
95	73639	13.076053185805	1049
95	73795	13.094170520061	1049
95	73911	13.103149187189	18
95	74050	13.121126521445	18
95	74086	13.129964521445	1049
95	74146	13.138552521445	1049
95	74299	13.156749855701	18
95	74367	13.165539189957	18
95	74410	13.174217189957	1049
95	74476	13.176235522137	18
95	74586	13.191684524213	1049
95	74632	13.194533523521	18
95	74698	13.203371523521	1049
95	74783	13.212420524213	18
95	75148	13.275701861237	1049
95	75261	13.285130861929	18
95	75575	13.339013198261	1049
95	75668	13.347951865389	18
95	76424	13.482226208641	18
95	76471	13.490924208641	1049
95	76675	13.518829542897	1049
95	76969	13.557494878537	18
95	77027	13.566052878537	1049
95	77267	13.593048879921	18
95	77301	13.601686879921	1049
95	77471	13.619894214177	18
95	77519	13.628852214177	1049
95	77904	13.688225217637	18
95	77968	13.697383217637	1049
95	78034	13.705821884765	18
95	78768	13.841785227325	1049
95	78802	13.842034893761	18
95	80697	14.195624252929	1049
95	80784	14.204793253621	18
95	81009	14.240107588569	1049
95	81098	14.249116589261	18
95	81524	14.320776926977	1049
95	81589	14.321346593413	18
95	82046	14.401905931821	1049
95	82139	14.411054932513	18
95	82286	14.428832266769	18
95	82320	14.437449933205	1049
95	82387	14.446427933205	1049
95	82611	14.473594601717	1049
95	82795	14.491691602409	18
95	82842	14.500309602409	1049
95	83447	14.600617609329	18
95	83482	14.609195609329	1049
95	83728	14.637741610713	18
95	83775	14.646359610713	1049
95	83954	14.672954611405	18
95	83997	14.681972611405	1049
95	84090	14.691410277841	1049
95	84228	14.709418946353	18
95	84318	14.727076280609	1049
95	84391	14.736034280609	1049
95	84504	14.745512280609	1049
95	84585	14.754341614865	1049
95	84829	14.790488951889	18
95	84874	14.799166951889	1049
95	84944	14.808156286145	1049
95	85208	14.847097952581	1049
95	85408	14.874083286837	1049
95	85521	14.886881286837	1049
95	85694	14.913859289605	18
95	85740	14.922657289605	1049
95	85921	14.942044290297	18
95	85957	14.950731956733	1049
95	86115	14.968969624553	1049
95	86293	14.988436291681	18
95	86341	14.997554291681	1049
95	86586	15.037990626629	18
95	86633	15.046548626629	1049
95	86842	15.078943627321	1049
95	86943	15.089621627321	1049
95	87020	15.099080961577	18
95	87067	15.108018961577	1049
95	87242	15.127466295833	18
95	87291	15.136524295833	1049
95	87359	15.144551962269	18
95	87418	15.153249962269	1049
95	87521	15.162909296525	18
95	87570	15.171467296525	1049
95	87666	15.180474962961	1049
95	87831	15.198532297217	1049
95	87921	15.207590964345	18
95	88080	15.225448298601	18
95	88117	15.234286298601	1049
95	88467	15.278881635625	18
95	88528	15.288110969881	18
95	88574	15.296788969881	1049
95	88641	15.305698304137	1049
95	88707	15.308006302753	18
95	88816	15.323585638393	1049
95	88881	15.325944304137	18
95	88970	15.334993304829	18
95	89172	15.361959639777	18
95	89206	15.370597639777	1049
95	89264	15.379255306213	1049
95	89423	15.397402640469	1049
95	89493	15.406380640469	1049
95	89622	15.415839974725	18
95	89664	15.424677974725	1049
95	90247	15.523727983029	1049
95	90509	15.560622651541	1049
95	90670	15.579239985797	1049
95	90804	15.602436986489	1049
95	90961	15.621184320745	1049
95	91027	15.622924652925	18
95	91192	15.648471987181	18
95	91239	15.657509987181	1049
95	91416	15.679004987873	18
95	91454	15.687702987873	1049
95	91601	15.706290322129	18
95	91667	15.715479656385	18
95	91702	15.724037656385	1049
95	91848	15.750132990641	1049
95	92002	15.767900324897	1049
95	92045	15.768499991333	18
95	92183	15.789997325589	1049
95	92256	15.797464992025	18
95	92504	15.835570327665	18
95	92539	15.844428327665	1049
95	92679	15.862635661921	1049
95	93294	15.962585003097	18
95	93366	15.971394337353	18
95	93401	15.980112337353	1049
95	93495	15.989480337353	1049
95	93556	15.999518337353	1049
95	93661	16.017015671609	1049
95	93730	16.017627338045	18
95	93941	16.046504006557	18
95	93985	16.055322006557	1049
95	94144	16.073897672993	1049
95	94342	16.104402673685	1049
95	94517	16.123140007941	18
95	94562	16.131998007941	1049
95	94731	16.158775008633	18
95	94779	16.167333008633	1049
95	94951	16.186220342889	18
95	95020	16.195109677145	18
95	95135	16.213028345657	18
95	95172	16.221606345657	1049
95	95277	16.231154675069	1049
95	95329	16.240012675069	1049
95	95403	16.249770675069	1049
95	95470	16.259608675069	1049
95	95536	16.269526675069	1049
95	95609	16.279444675069	1049
95	95840	16.306470009325	1049
95	96064	16.342537346349	18
95	96108	16.351175346349	1049
95	96289	16.385030347041	1049
95	96460	16.403707681297	1049
95	96742	16.439942016245	1049
95	96922	16.458299350501	18
95	96989	16.467428684757	18
95	97078	16.484956019013	1049
95	97170	16.493904019013	1049
95	97244	16.502893353269	1049
95	97396	16.521050687525	1049
95	97472	16.530068687525	1049
95	97563	16.538878021781	1049
95	97682	16.557255356037	1049
95	98163	16.633118695829	18
95	98222	16.641856695829	1049
95	98405	16.662924030085	18
95	98448	16.671682030085	1049
95	98678	16.707065030777	18
95	98719	16.715943030777	1049
95	98813	16.725132365033	1049
95	98992	16.743459699289	1049
95	99130	16.760657033545	1049
95	99221	16.769926367801	1049
95	99674	16.847116705517	1049
95	99832	16.865574039773	1049
95	100012	16.889601040465	18
95	100116	16.907348374721	1049
95	100271	16.928285708977	18
95	100320	16.936843708977	1049
95	100497	16.955291043233	18
95	100566	16.964240377489	18
95	100602	16.972838377489	1049
95	100748	16.990365711745	1049
95	100887	17.010802709669	1049
95	101039	17.036699710361	1049
95	101232	17.068907044617	18
95	101276	17.077625044617	1049
95	101499	17.105681713129	18
95	101537	17.114279713129	1049
95	101677	17.132547047385	1049
95	101734	17.141584711053	1049
95	101844	17.150664045309	18
95	101920	17.159453379565	18
95	101965	17.168271379565	1049
95	102035	17.177200713821	1049
95	102099	17.184888712437	18
95	102184	17.194017713129	18
95	102641	17.274187051537	1049
95	102705	17.274916717973	18
95	102947	17.310731052921	1049
95	103056	17.320040053613	18
95	103192	17.338397387869	18
95	103254	17.347155387869	1049
95	103572	17.401076389945	1049
95	103915	17.446599392021	1049
95	105323	17.720448412089	1049
95	105521	17.747666414857	18
95	105592	17.756615749113	18
95	105631	17.765293749113	1049
95	105790	17.783021083369	1049
95	105845	17.791999083369	1049
95	106115	17.833520416241	1049
95	107339	18.062123765721	1049
95	107635	18.098798100669	1049
95	107750	18.107836767797	18
95	110941	18.743305148417	1049
95	111030	18.752474149109	18
95	111284	18.797288151877	1049
95	111394	18.806907486133	18
95	111436	18.815625486133	1049
95	111494	18.824653486133	1049
95	111654	18.842962154645	18
95	111700	18.851640154645	1049
95	111877	18.870527155337	18
95	111976	18.888334489593	1049
95	112090	18.898362489593	1049
95	112157	18.907440489593	1049
95	112411	18.948904824541	1049
95	112500	18.958043491669	18
95	114782	19.401783858449	18
95	114826	19.410741858449	1049
95	115000	19.428649192705	1049
95	115181	19.449576526961	18
95	115226	19.458374526961	1049
95	115329	19.473989859833	1049
95	115515	19.501207862601	18
95	115575	19.510317196857	18
95	115619	19.518875196857	1049
95	115686	19.527984531113	1049
95	115874	19.550838863293	1049
95	116002	19.569507531805	18
95	116046	19.578445531805	1049
95	116110	19.587184866061	1049
95	116492	19.640970871597	18
95	116535	19.649888871597	1049
95	116695	19.669016538033	1049
95	116848	19.686743872289	1049
95	116940	19.696133206545	1049
95	117032	19.705391206545	1049
95	117087	19.705730205853	18
95	117259	19.728237540109	18
95	117303	19.737015540109	1049
95	117475	19.763450540801	18
95	117564	19.780957875057	1049
95	117637	19.790127209313	1049
95	117708	19.797616875749	18
95	117795	19.806785876441	18
95	118228	19.887595881977	1049
95	118368	19.905663216233	1049
95	118460	19.914792216925	18
96	3078	1.142453524579	1049
96	7996	1.865296880979	1049
96	10447	2.232934224923	1049
96	11333	2.365596894819	1049
96	11460	2.383384229075	1049
96	13505	2.707414908659	1049
96	14379	2.839199246375	1049
96	22632	4.062395948103	1049
96	23623	4.204104616615	1049
96	26093	4.581099971631	1049
96	34914	5.875127679587	1049
96	35688	5.978164352251	1049
96	38095	6.316713355711	1049
96	42687	7.020156379931	1049
96	43476	7.132880051903	1049
96	44164	7.233440053287	1049
96	44241	7.251557387543	1049
96	44300	7.261835387543	1049
96	44345	7.271144721799	1049
96	58704	10.747664729065	1049
96	59037	10.796608398269	1049
96	59918	10.922939736677	1049
96	64123	11.621293779581	1049
96	65377	11.793988450861	1049
96	65629	11.835242785809	1049
96	65933	11.886006455013	1049
96	67383	12.107932796881	1049
96	67429	12.117042131137	1049
96	70002	12.473652817641	1049
96	70221	12.509997486153	1049
96	85053	14.818703285453	1049
96	86988	15.098830294449	1049
96	90188	15.514989315901	1049
96	90447	15.551883984413	1049
96	90772	15.593678319361	1049
96	91509	15.696441655001	1049
96	91760	15.732616323513	1049
96	91816	15.741534323513	1049
96	93620	16.008097004481	1049
96	94244	16.084436006557	1049
96	94667	16.148446341505	1049
96	96210	16.367193679913	1049
96	96233	16.376031679913	1049
96	97645	16.548076688909	1049
96	98597	16.697765029393	1049
96	98646	16.706814363649	1049
96	100216	16.919137041849	1049
96	106061	17.824471749113	1049
96	116413	19.631910870213	1049
97	4771	1.399845029769	1049
97	7369	1.774462045685	1049
97	10553	2.245354722501	1049
97	25542	4.489703132185	1049
97	26316	4.608767132185	1049
97	28736	4.959326811077	1049
97	35120	5.899585511421	1049
97	35950	6.014209511421	1049
97	42851	7.040172880277	1049
97	59370	10.849931233563	1049
97	64498	11.678357280619	1049
97	66071	11.912682955359	1049
97	70421	12.530873986499	1049
97	85732	14.915357788567	1049
97	87127	15.116326794795	1049
97	90870	15.604957485451	1049
97	91961	15.759370823859	1049
97	94758	16.161305507595	1049
97	96404	16.394468180259	1049
97	98125	16.631017194791	1049
97	100299	16.930096207939	1049
97	101161	17.053937543579	1049
97	101960	17.167280544271	1049
97	116530	19.643620036303	1049
98	6858	1.707630041533	1049
98	31605	5.366965158481	1049
99	23945	4.258718284435	1049
99	46397	8.843403627341	1049
99	46636	8.870758961597	1049
99	47712	9.022748632185	1049
99	47993	9.060113300697	1049
99	48216	9.089836967133	1049
99	48969	9.197532971285	1049
99	49215	9.225567304849	1049
99	49578	9.270460640489	1049
99	52722	9.817974677857	1049
99	54608	10.156865702077	1049
99	55077	10.227585372665	1049
99	55144	10.236594706921	1049
99	55436	10.275735039101	1049
99	56155	10.375609376817	1049
99	56968	10.510802385813	1049
99	57363	10.565194388581	1049
99	57821	10.620584723529	1049
99	58052	10.647610057785	1049
99	58258	10.683443058477	1049
99	58639	10.738566395501	1049
99	58939	10.783650064705	1049
99	59233	10.832213733909	1049
99	59467	10.864098734601	1049
99	59699	10.894803735293	1049
99	59984	10.931868403805	1049
99	60053	10.941197738061	1049
99	63231	11.506970774737	1049
99	63531	11.542995443249	1049
99	63798	11.581340111761	1049
99	64021	11.608835446017	1049
99	64226	11.640080446709	1049
99	64523	11.681276781657	1049
99	64753	11.713861782349	1049
99	64981	11.741845782349	1049
99	65276	11.779610117297	1049
99	65530	11.821584452245	1049
99	65835	11.871468121449	1049
99	66077	11.913702456397	1049
99	66305	11.948087457089	1049
99	66522	11.975562457781	1049
99	66910	12.034994460549	1049
99	67242	12.081698463317	1049
99	67489	12.125980798265	1049
99	67650	12.143558132521	1049
99	67805	12.161415466777	1049
99	68268	12.225808138057	1049
99	68996	12.344723145669	1049
99	69246	12.371988146361	1049
99	69472	12.398953480617	1049
99	69897	12.463445818333	1049
99	70034	12.482251484769	1049
99	70293	12.519086153281	1049
99	70598	12.555180821793	1049
99	71088	12.624548823177	1049
99	73796	13.094170520061	1049
99	74087	13.129964521445	1049
99	74587	13.191684524213	1049
99	74699	13.203371523521	1049
99	75149	13.275701861237	1049
99	75576	13.339013198261	1049
99	76472	13.490924208641	1049
99	76676	13.518829542897	1049
99	77028	13.566052878537	1049
99	77302	13.601686879921	1049
99	77520	13.628852214177	1049
99	77969	13.697383217637	1049
99	80698	14.195624252929	1049
99	81010	14.240107588569	1049
99	82047	14.401905931821	1049
99	82321	14.437449933205	1049
99	82612	14.473594601717	1049
99	82843	14.500309602409	1049
99	83483	14.609195609329	1049
99	83776	14.646359610713	1049
99	83998	14.681972611405	1049
99	84319	14.727076280609	1049
99	84392	14.736034280609	1049
99	84875	14.799166951889	1049
99	84945	14.808156286145	1049
99	85209	14.847097952581	1049
99	85409	14.874083286837	1049
99	85741	14.922657289605	1049
99	85958	14.950731956733	1049
99	86116	14.968969624553	1049
99	86342	14.997554291681	1049
99	86634	15.046548626629	1049
99	86843	15.078943627321	1049
99	87068	15.108018961577	1049
99	87571	15.171467296525	1049
99	87832	15.198532297217	1049
99	88118	15.234286298601	1049
99	88575	15.296788969881	1049
99	88642	15.305698304137	1049
99	88817	15.323585638393	1049
99	89424	15.397402640469	1049
99	89665	15.424677974725	1049
99	90248	15.523727983029	1049
99	90510	15.560622651541	1049
99	90671	15.579239985797	1049
99	91240	15.657509987181	1049
99	91849	15.750132990641	1049
99	92680	15.862635661921	1049
99	93402	15.980112337353	1049
99	93496	15.989480337353	1049
99	93557	15.999518337353	1049
99	93986	16.055322006557	1049
99	94145	16.073897672993	1049
99	94343	16.104402673685	1049
99	94563	16.131998007941	1049
99	95278	16.231154675069	1049
99	95330	16.240012675069	1049
99	95404	16.249770675069	1049
99	95471	16.259608675069	1049
99	95537	16.269526675069	1049
99	96109	16.351175346349	1049
99	96290	16.385030347041	1049
99	96461	16.403707681297	1049
99	96743	16.439942016245	1049
99	97079	16.484956019013	1049
99	97245	16.502893353269	1049
99	97397	16.521050687525	1049
99	97564	16.538878021781	1049
99	97683	16.557255356037	1049
99	98449	16.671682030085	1049
99	98720	16.715943030777	1049
99	98814	16.725132365033	1049
99	98993	16.743459699289	1049
99	99222	16.769926367801	1049
99	99675	16.847116705517	1049
99	99833	16.865574039773	1049
99	100117	16.907348374721	1049
99	100749	16.990365711745	1049
99	100888	17.010802709669	1049
99	101040	17.036699710361	1049
99	101966	17.168271379565	1049
99	102036	17.177200713821	1049
99	102948	17.310731052921	1049
99	103255	17.347155387869	1049
99	103916	17.446599392021	1049
99	105632	17.765293749113	1049
99	105791	17.783021083369	1049
99	105846	17.791999083369	1049
99	106116	17.833520416241	1049
99	107340	18.062123765721	1049
99	107636	18.098798100669	1049
99	110942	18.743305148417	1049
99	111437	18.815625486133	1049
99	111701	18.851640154645	1049
99	111977	18.888334489593	1049
99	112091	18.898362489593	1049
99	112158	18.907440489593	1049
99	112412	18.948904824541	1049
99	114827	19.410741858449	1049
99	115001	19.428649192705	1049
99	115227	19.458374526961	1049
99	115620	19.518875196857	1049
99	115687	19.527984531113	1049
99	116536	19.649888871597	1049
99	116849	19.686743872289	1049
99	117304	19.737015540109	1049
99	117565	19.780957875057	1049
99	117638	19.790127209313	1049
99	118369	19.905663216233	1049
100	95284	16.231454007941	1049
101	118975	0.1	0
101	118975	0.2	0
101	118975	0.3	0
101	118975	0.4	0
101	118975	0.5	0
101	118975	0.6	0
101	118975	0.7	0
101	118975	0.8	0
101	118975	0.9	0
101	118975	1	0
101	118975	1.1	0
101	118975	1.2	0
101	118975	1.3	0
101	118975	1.4	0
101	118975	1.5	0
101	118975	1.6	0
101	118975	1.7	0
101	118975	1.8	0
101	118975	1.9	0
101	118975	2	0
101	118975	2.1	0
101	118975	2.2	0
101	118975	2.3	0
101	118975	2.4	0
101	118975	2.5	0
101	118975	2.6	0
101	118975	2.7	0
101	118975	2.8	0
101	118975	2.9	0
101	118975	3	0
101	118975	3.1	0
101	118975	3.2	0
101	118975	3.3	0
101	118975	3.4	0
101	118975	3.5	0
101	118975	3.6	0
101	118975	3.7	0
101	118975	3.8	0
101	118975	3.9	0
101	118975	4	0
101	118975	4.1	0
101	118975	4.2	0
101	118975	4.3	0
101	118975	4.4	0
101	118975	4.5	0
101	118975	4.6	0
101	118975	4.7	0
101	118975	4.8	0
101	118975	4.9	0
101	118975	5	0
101	118975	5.1	0
101	118975	5.2	0
101	118975	5.3	0
101	118975	5.4	0
101	118975	5.5	0
101	118975	5.6	0
101	118975	5.7	0
101	118975	5.8	0
101	118975	5.9	0
101	118975	6	0
101	118975	6.1	0
101	118975	6.2	0
101	118975	6.3	0
101	118975	6.4	0
101	118975	6.5	0
101	118975	6.6	0
101	118975	6.7	0
101	118975	6.8	0
101	118975	6.9	0
101	118975	7	0
101	118975	7.1	0
101	118975	7.2	0
101	118975	7.3	0
101	118975	7.4	0
101	118975	7.5	0
101	118975	7.6	0
101	118975	7.7	0
101	118975	7.8	0
101	118975	7.9	0
101	118975	8	0
101	118975	8.1	0
101	118975	8.2	0
101	118975	8.3	0
101	118975	8.4	0
101	118975	8.5	0
101	118975	8.6	0
101	118975	8.7	0
101	118975	8.8	0
101	118975	8.9	0
101	118975	9	0
101	118975	9.1	0
101	118975	9.2	0
101	118975	9.3	0
101	118975	9.4	0
101	118975	9.5	0
101	118975	9.6	0
101	118975	9.7	0
101	118975	9.8	0
101	118975	9.9	0
101	118975	10	0
101	118975	10.1	0
101	118975	10.2	0
101	118975	10.3	0
101	118975	10.4	0
101	118975	10.5	0
101	118975	10.6	0
101	118975	10.7	0
101	118975	10.8	0
101	118975	10.9	0
101	118975	11	0
101	118975	11.1	0
101	118975	11.2	0
101	118975	11.3	0
101	118975	11.4	0
101	118975	11.5	0
101	118975	11.6	0
101	118975	11.7	0
101	118975	11.8	0
101	118975	11.9	0
101	118975	12	0
101	118975	12.1	0
101	118975	12.2	0
101	118975	12.3	0
101	118975	12.4	0
101	118975	12.5	0
101	118975	12.6	0
101	118975	12.7	0
101	118975	12.8	0
101	118975	12.9	0
101	118975	13	0
101	118975	13.1	0
101	118975	13.2	0
101	118975	13.3	0
101	118975	13.4	0
101	118975	13.5	0
101	118975	13.6	0
101	118975	13.7	0
101	118975	13.8	0
101	118975	13.9	0
101	118975	14	0
101	118975	14.1	0
101	118975	14.2	0
101	118975	14.3	0
101	118975	14.4	0
101	118975	14.5	0
101	118975	14.6	0
101	118975	14.7	0
101	118975	14.8	0
101	118975	14.9	0
101	118975	15	0
101	118975	15.1	0
101	118975	15.2	0
101	118975	15.3	0
101	118975	15.4	0
101	118975	15.5	0
101	118975	15.6	0
101	118975	15.7	0
101	118975	15.8	0
101	118975	15.9	0
101	118975	16	0
101	118975	16.1	0
101	118975	16.2	0
101	118975	16.3	0
101	118975	16.4	0
101	118975	16.5	0
101	118975	16.6	0
101	118975	16.7	0
101	118975	16.8	0
101	118975	16.9	0
101	118975	17	0
101	118975	17.1	0
101	118975	17.2	0
101	118975	17.3	0
101	118975	17.4	0
101	118975	17.5	0
101	118975	17.6	0
101	118975	17.7	0
101	118975	17.8	0
101	118975	17.9	0
101	118975	18	0
101	118975	18.1	0
101	118975	18.2	0
101	118975	18.3	0
101	118975	18.4	0
101	118975	18.5	0
101	118975	18.6	0
101	118975	18.7	0
101	118975	18.8	0
101	118975	18.9	0
101	118975	19	0
101	118975	19.1	0
101	118975	19.2	0
101	118975	19.3	0
101	118975	19.4	0
101	118975	19.5	0
101	118975	19.6	0
101	118975	19.7	0
101	118975	19.8	0
101	118975	19.9	0
101	118975	20	0

