version 2
run Wireless01-0-20220816-17:11:26-64048
attr configname Wireless01
attr datetime 20220816-17:11:26
attr experiment Wireless01
attr inifile omnetpp.ini
attr iterationvars ""
attr iterationvarsf ""
attr measurement ""
attr network Multihop
attr processid 64048
attr repetition 0
attr replication #0
attr resultdir results
attr runnumber 0
attr seedset 0
param *.host*.ipv4.arp.typename "\"GlobalArp\""
param *.host*.forwarding true
param *.configurator.optimizeRoutes false
param *.hostA.numApps 1
param *.hostA.app[0].typename "\"UdpBasicApp\""
param *.hostA.app[0].destAddresses "\"hostB\""
param *.hostA.app[0].destPort 5000
param *.hostA.app[0].messageLength 1000B
param *.hostA.app[0].sendInterval exponential(12ms)
param *.hostA.app[0].packetName "\"UDPData\""
param *.hostB.numApps 1
param *.hostB.app[0].typename "\"UdpSink\""
param *.hostB.app[0].localPort 5000
param *.host*.wlan[0].typename "\"WirelessInterface\""
param *.host*.wlan[0].radio.typename "\"UnitDiskRadio\""
param *.host*.wlan[0].radio.transmitter.communicationRange 300m
param *.host*.wlan[0].radio.transmitter.interferenceRange 500m
param *.host*.wlan[0].mac.typename "\"CsmaCaMac\""
param *.host*.wlan[0].mac.ackTimeout 300us
param *.host*.wlan[0].mac.useAck true
param *.host*.wlan[0].queue.typename "\"DropTailQueue\""
param *.host*.**.bitrate 1Mbps
param *.hostA.wlan[0].radio.displayCommunicationRange true
param *.hostC.wlan[0].radio.displayCommunicationRange true
param *.configurator.addStaticRoutes false
param *.host*.typename "\"AodvRouter\""
param *.host*.mobility.typename "\"StationaryMobility\""
param *.host*.mobility.initialZ 0.1m
param *.physicalEnvironment.config "xmldoc(\"mine.xml\")"
param *.radioMedium.obstacleLoss.typename "\"IdealObstacleLoss\""
param *.visualizer.sceneVisualizer.descriptionFigure "\"title\""
param *.visualizer.physicalLinkVisualizer.displayLinks true
param *.visualizer.physicalLinkVisualizer.packetFilter "\"UDPData*\""

scalar Multihop.radioMedium.propagation "Arrival computation count" 35980
scalar Multihop.radioMedium "transmission count" 5140
scalar Multihop.radioMedium "signal send count" 35980
scalar Multihop.radioMedium "reception computation count" 35980
scalar Multihop.radioMedium "interference computation count" 95960
scalar Multihop.radioMedium "reception decision computation count" 10548
scalar Multihop.radioMedium "listening decision computation count" 52245
scalar Multihop.radioMedium "reception cache hit" 82.794979079498
attr unit %
scalar Multihop.radioMedium "interference cache hit" 66.666666666667
attr unit %
scalar Multihop.radioMedium "noise cache hit" 0
attr unit %
scalar Multihop.radioMedium "snir cache hit" 50
attr unit %
scalar Multihop.radioMedium "reception decision cache hit" 50
attr unit %
scalar Multihop.radioMedium "reception result cache hit" 0
attr unit %
scalar Multihop.hostA.lo[0].lo rcvdPkFromHl:count 0
attr interpolationmode none
attr source packetReceivedFromUpper
attr title "packets received from higher layer, count"
scalar Multihop.hostA.lo[0].lo rcvdPkFromHl:sum(packetBytes) 0
attr interpolationmode none
attr source packetReceivedFromUpper
attr title "packets received from higher layer, sum(packetBytes)"
scalar Multihop.hostA.lo[0].lo passedUpPk:count 0
attr interpolationmode none
attr source packetSentToUpper
attr title "packets passed to higher layer, count"
scalar Multihop.hostA.lo[0].lo passedUpPk:sum(packetBytes) 0
attr interpolationmode none
attr source packetSentToUpper
attr title "packets passed to higher layer, sum(packetBytes)"
scalar Multihop.hostA.wlan[0].mac.queue packetPopped:count 739
attr interpolationmode none
attr title "packet popped, count"
scalar Multihop.hostA.wlan[0].mac.queue packetPopped:sum(packetBytes) 765455
attr interpolationmode none
attr title "packet popped, sum(packetBytes)"
statistic Multihop.hostA.wlan[0].mac.queue queueingTime:histogram
field count 739
field mean 5.1204231380111
field stddev 3.3890303368335
field min 0
field max 11.18803393076
field sum 3783.9926989902
field sqrsum 27851.96241847
attr interpolationmode none
attr source queueingTime(packetPopped)
attr title "queueing times, histogram"
attr unit s
bin	-inf	0
bin	0	16
bin	0.2	5
bin	0.4	22
bin	0.6	25
bin	0.8	23
bin	1	24
bin	1.2	23
bin	1.4	11
bin	1.6	19
bin	1.8	2
bin	2	5
bin	2.2	23
bin	2.4	25
bin	2.6	13
bin	2.8	7
bin	3	3
bin	3.2	13
bin	3.4	19
bin	3.6	6
bin	3.8	21
bin	4	23
bin	4.2	17
bin	4.4	21
bin	4.6	20
bin	4.8	20
bin	5	27
bin	5.2	25
bin	5.4	21
bin	5.6	16
bin	5.8	1
bin	6	1
bin	6.2	3
bin	6.4	7
bin	6.6	0
bin	6.8	4
bin	7	3
bin	7.2	2
bin	7.4	0
bin	7.6	2
bin	7.8	3
bin	8	1
bin	8.2	3
bin	8.4	13
bin	8.6	18
bin	8.8	14
bin	9	16
bin	9.2	17
bin	9.4	23
bin	9.6	22
bin	9.8	19
bin	10	6
bin	10.2	22
bin	10.4	22
bin	10.6	1
bin	10.8	3
bin	11	18
bin	11.2	0
scalar Multihop.hostA.wlan[0].mac.queue queueLength:max 656
attr interpolationmode sample-hold
attr source "count(packetPushed) - count(packetPopped) - count(packetRemoved) - count(packetDropped)"
attr title "queue length, max"
scalar Multihop.hostA.wlan[0].mac.queue queueLength:timeavg 279.99947936675
attr interpolationmode sample-hold
attr source "count(packetPushed) - count(packetPopped) - count(packetRemoved) - count(packetDropped)"
attr title "queue length, timeavg"
scalar Multihop.hostA.wlan[0].mac.queue packetPushed:count 918
attr interpolationmode none
attr title "packet pushed, count"
scalar Multihop.hostA.wlan[0].mac.queue packetPushed:sum(packetBytes) 946398
attr interpolationmode none
attr title "packet pushed, sum(packetBytes)"
scalar Multihop.hostA.wlan[0].mac.queue packetDropQueueOverflow:count 0
attr interpolationmode none
attr source packetDropReasonIsQueueOverflow(packetDropped)
attr title "packet drops: queue overflow, count"
scalar Multihop.hostA.wlan[0].mac.queue packetDropQueueOverflow:sum(packetBytes) 0
attr interpolationmode none
attr source packetDropReasonIsQueueOverflow(packetDropped)
attr title "packet drops: queue overflow, sum(packetBytes)"
scalar Multihop.hostA.wlan[0].mac.queue packetRemoved:count 0
attr interpolationmode none
attr title "packets removed, count"
scalar Multihop.hostA.wlan[0].mac.queue packetRemoved:sum(packetBytes) 0
attr interpolationmode none
attr title "packets removed, sum(packetBytes)"
scalar Multihop.hostA.wlan[0].mac numRetry 551
scalar Multihop.hostA.wlan[0].mac numSentWithoutRetry 578
scalar Multihop.hostA.wlan[0].mac numGivenUp 24
scalar Multihop.hostA.wlan[0].mac numCollision 0
scalar Multihop.hostA.wlan[0].mac numSent 704
scalar Multihop.hostA.wlan[0].mac numReceived 2
scalar Multihop.hostA.wlan[0].mac numSentBroadcast 10
scalar Multihop.hostA.wlan[0].mac numReceivedBroadcast 4
scalar Multihop.hostA.wlan[0].mac packetDropIncorrectlyReceived:count 0
attr interpolationmode none
attr source packetDropReasonIsIncorrectlyReceived(packetDropped)
attr title "packet drop: incorrectly received, count"
scalar Multihop.hostA.wlan[0].mac packetDropIncorrectlyReceived:sum(packetBytes) 0
attr interpolationmode none
attr source packetDropReasonIsIncorrectlyReceived(packetDropped)
attr title "packet drop: incorrectly received, sum(packetBytes)"
scalar Multihop.hostA.wlan[0].mac packetDropNotAddressedToUs:count 445
attr interpolationmode none
attr source packetDropReasonIsNotAddressedToUs(packetDropped)
attr title "packet drop: not addressed to us, count"
scalar Multihop.hostA.wlan[0].mac packetDropNotAddressedToUs:sum(packetBytes) 466805
attr interpolationmode none
attr source packetDropReasonIsNotAddressedToUs(packetDropped)
attr title "packet drop: not addressed to us, sum(packetBytes)"
scalar Multihop.hostA.wlan[0].mac packetDropQueueOverflow:count 0
attr interpolationmode none
attr source packetDropReasonIsQueueOverflow(packetDropped)
attr title "packet drop: queue overflow, count"
scalar Multihop.hostA.wlan[0].mac packetDropQueueOverflow:sum(packetBytes) 0
attr interpolationmode none
attr source packetDropReasonIsQueueOverflow(packetDropped)
attr title "packet drop: queue overflow, sum(packetBytes)"
scalar Multihop.hostA.wlan[0].mac packetDropRetryLimitReached:count 24
attr interpolationmode none
attr source packetDropReasonIsRetryLimitReached(packetDropped)
attr title "packet drop: retry limit reached, count"
scalar Multihop.hostA.wlan[0].mac packetDropRetryLimitReached:sum(packetBytes) 25176
attr interpolationmode none
attr source packetDropReasonIsRetryLimitReached(packetDropped)
attr title "packet drop: retry limit reached, sum(packetBytes)"
scalar Multihop.hostA.wlan[0].mac linkBroken:count 24
attr interpolationmode none
attr source linkBroken
attr title "link break, count"
statistic Multihop.hostA.wlan[0].radio minSnir:histogram
field count 0
field mean nan
field stddev nan
field min nan
field max nan
field sum 0
field sqrsum 0
attr source minimumSnir(packetSentToUpper)
attr title "Min SNIR, histogram"
bin	-inf	0
bin	0	0
bin	1	0
statistic Multihop.hostA.wlan[0].radio packetErrorRate:histogram
field count 1157
field mean 0
field stddev 0
field min 0
field max 0
field sum 0
field sqrsum 0
attr source packetErrorRate(packetSentToUpper)
attr title "Packet error rate, histogram"
bin	-inf	0
bin	-0.5	0
bin	-0.48	0
bin	-0.46	0
bin	-0.44	0
bin	-0.42	0
bin	-0.4	0
bin	-0.38	0
bin	-0.36	0
bin	-0.34	0
bin	-0.32	0
bin	-0.3	0
bin	-0.28	0
bin	-0.26	0
bin	-0.24	0
bin	-0.22	0
bin	-0.2	0
bin	-0.18	0
bin	-0.16	0
bin	-0.14	0
bin	-0.12	0
bin	-0.1	0
bin	-0.08	0
bin	-0.06	0
bin	-0.04	0
bin	-0.02	0
bin	0	1157
bin	0.02	0
bin	0.04	0
bin	0.06	0
bin	0.08	0
bin	0.1	0
bin	0.12	0
bin	0.14	0
bin	0.16	0
bin	0.18	0
bin	0.2	0
bin	0.22	0
bin	0.24	0
bin	0.26	0
bin	0.28	0
bin	0.3	0
bin	0.32	0
bin	0.34	0
bin	0.36	0
bin	0.38	0
bin	0.4	0
bin	0.42	0
bin	0.44	0
bin	0.46	0
bin	0.48	0
bin	0.5	0
statistic Multihop.hostA.wlan[0].radio bitErrorRate:histogram
field count 1157
field mean 0
field stddev 0
field min 0
field max 0
field sum 0
field sqrsum 0
attr source bitErrorRate(packetSentToUpper)
attr title "Bit error rate, histogram"
bin	-inf	0
bin	-0.5	0
bin	-0.48	0
bin	-0.46	0
bin	-0.44	0
bin	-0.42	0
bin	-0.4	0
bin	-0.38	0
bin	-0.36	0
bin	-0.34	0
bin	-0.32	0
bin	-0.3	0
bin	-0.28	0
bin	-0.26	0
bin	-0.24	0
bin	-0.22	0
bin	-0.2	0
bin	-0.18	0
bin	-0.16	0
bin	-0.14	0
bin	-0.12	0
bin	-0.1	0
bin	-0.08	0
bin	-0.06	0
bin	-0.04	0
bin	-0.02	0
bin	0	1157
bin	0.02	0
bin	0.04	0
bin	0.06	0
bin	0.08	0
bin	0.1	0
bin	0.12	0
bin	0.14	0
bin	0.16	0
bin	0.18	0
bin	0.2	0
bin	0.22	0
bin	0.24	0
bin	0.26	0
bin	0.28	0
bin	0.3	0
bin	0.32	0
bin	0.34	0
bin	0.36	0
bin	0.38	0
bin	0.4	0
bin	0.42	0
bin	0.44	0
bin	0.46	0
bin	0.48	0
bin	0.5	0
statistic Multihop.hostA.wlan[0].radio symbolErrorRate:histogram
field count 1157
field mean 0
field stddev 0
field min 0
field max 0
field sum 0
field sqrsum 0
attr source symbolErrorRate(packetSentToUpper)
attr title "Symbol error rate, histogram"
bin	-inf	0
bin	-0.5	0
bin	-0.48	0
bin	-0.46	0
bin	-0.44	0
bin	-0.42	0
bin	-0.4	0
bin	-0.38	0
bin	-0.36	0
bin	-0.34	0
bin	-0.32	0
bin	-0.3	0
bin	-0.28	0
bin	-0.26	0
bin	-0.24	0
bin	-0.22	0
bin	-0.2	0
bin	-0.18	0
bin	-0.16	0
bin	-0.14	0
bin	-0.12	0
bin	-0.1	0
bin	-0.08	0
bin	-0.06	0
bin	-0.04	0
bin	-0.02	0
bin	0	1157
bin	0.02	0
bin	0.04	0
bin	0.06	0
bin	0.08	0
bin	0.1	0
bin	0.12	0
bin	0.14	0
bin	0.16	0
bin	0.18	0
bin	0.2	0
bin	0.22	0
bin	0.24	0
bin	0.26	0
bin	0.28	0
bin	0.3	0
bin	0.32	0
bin	0.34	0
bin	0.36	0
bin	0.38	0
bin	0.4	0
bin	0.42	0
bin	0.44	0
bin	0.46	0
bin	0.48	0
bin	0.5	0
scalar Multihop.hostA.wlan[0].radio transmissionState:count 5164
attr interpolationmode sample-hold
attr source transmissionStateChanged
attr title "Radio transmission state, count"
scalar Multihop.hostA.wlan[0].radio receptionState:count 4905
attr interpolationmode sample-hold
attr source receptionStateChanged
attr title "Radio reception state, count"
scalar Multihop.hostA.wlan[0].radio radioMode:count 2585
attr interpolationmode sample-hold
attr source radioModeChanged
attr title "Radio mode, count"
scalar Multihop.hostA.ipv4.ip packetDropAddressResolutionFailed:count 0
attr interpolationmode none
attr source packetDropReasonIsAddressResolutionFailed(packetDropped)
attr title "packet drop: address resolution failed, count"
scalar Multihop.hostA.ipv4.ip packetDropAddressResolutionFailed:sum(packetBytes) 0
attr interpolationmode none
attr source packetDropReasonIsAddressResolutionFailed(packetDropped)
attr title "packet drop: address resolution failed, sum(packetBytes)"
scalar Multihop.hostA.ipv4.ip packetDropHopLimitReached:count 0
attr interpolationmode none
attr source packetDropReasonIsHopLimitReached(packetDropped)
attr title "packet drop: hop limit reached, count"
scalar Multihop.hostA.ipv4.ip packetDropHopLimitReached:sum(packetBytes) 0
attr interpolationmode none
attr source packetDropReasonIsHopLimitReached(packetDropped)
attr title "packet drop: hop limit reached, sum(packetBytes)"
scalar Multihop.hostA.ipv4.ip packetDropForwardingDisabled:count 0
attr interpolationmode none
attr source packetDropReasonIsForwardingDisabled(packetDropped)
attr title "packet drop: forwarding disabled, count"
scalar Multihop.hostA.ipv4.ip packetDropForwardingDisabled:sum(packetBytes) 0
attr interpolationmode none
attr source packetDropReasonIsForwardingDisabled(packetDropped)
attr title "packet drop: forwarding disabled, sum(packetBytes)"
scalar Multihop.hostA.ipv4.ip packetDropNoInterfaceFound:count 0
attr interpolationmode none
attr source packetDropReasonIsNoInterfaceFound(packetDropped)
attr title "packet drop: no interface found, count"
scalar Multihop.hostA.ipv4.ip packetDropNoInterfaceFound:sum(packetBytes) 0
attr interpolationmode none
attr source packetDropReasonIsNoInterfaceFound(packetDropped)
attr title "packet drop: no interface found, sum(packetBytes)"
scalar Multihop.hostA.ipv4.ip packetDropNoRouteFound:count 0
attr interpolationmode none
attr source packetDropReasonIsNoRouteFound(packetDropped)
attr title "packet drop: no route found, count"
scalar Multihop.hostA.ipv4.ip packetDropNoRouteFound:sum(packetBytes) 0
attr interpolationmode none
attr source packetDropReasonIsNoRouteFound(packetDropped)
attr title "packet drop: no route found, sum(packetBytes)"
scalar Multihop.hostA.ipv4.ip packetDropUndefined:count 0
attr interpolationmode none
attr source packetDropReasonIsUndefined(packetDropped)
attr title "packet drop: undefined, count"
scalar Multihop.hostA.ipv4.ip packetDropUndefined:sum(packetBytes) 0
attr interpolationmode none
attr source packetDropReasonIsUndefined(packetDropped)
attr title "packet drop: undefined, sum(packetBytes)"
scalar Multihop.hostA.udp packetReceived:count 6
attr interpolationmode none
attr source packetReceived
attr title "packets received, count"
scalar Multihop.hostA.udp packetReceived:sum(packetBytes) 184
attr interpolationmode none
attr source packetReceived
attr title "packets received, sum(packetBytes)"
scalar Multihop.hostA.udp packetSent:count 1688
attr interpolationmode none
attr source packetSent
attr title "packets sent, count"
scalar Multihop.hostA.udp packetSent:sum(packetBytes) 1684920
attr interpolationmode none
attr source packetSent
attr title "packets sent, sum(packetBytes)"
scalar Multihop.hostA.udp passedUpPk:count 6
attr interpolationmode none
attr source packetSentToUpper
attr title "packets passed up, count"
scalar Multihop.hostA.udp droppedPkWrongPort:count 0
attr interpolationmode none
attr source packetDropReasonIsNoPortFound(packetDropped)
attr title "packets dropped (wrong port), count"
scalar Multihop.hostA.udp droppedPkBadChecksum:count 0
attr interpolationmode none
attr source packetDropReasonIsIncorrectlyReceived(packetDropped)
attr title "packets dropped (checksum error), count"
scalar Multihop.hostA.app[0] "packets sent" 1671
scalar Multihop.hostA.app[0] "packets received" 0
scalar Multihop.hostA.app[0] packetReceived:count 0
attr interpolationmode none
attr source packetReceived
attr title "packets received, count"
scalar Multihop.hostA.app[0] packetReceived:sum(packetBytes) 0
attr interpolationmode none
attr source packetReceived
attr title "packets received, sum(packetBytes)"
statistic Multihop.hostA.app[0] rcvdPkLifetime:stats
field count 0
field mean nan
field stddev nan
field min nan
field max nan
field sum 0
field sqrsum 0
attr interpolationmode none
attr source dataAge(packetReceived)
attr title "received packet lifetime, stats"
attr unit s
scalar Multihop.hostA.app[0] packetSent:count 1671
attr interpolationmode none
attr source packetSent
attr title "packets sent, count"
scalar Multihop.hostA.app[0] packetSent:sum(packetBytes) 1671000
attr interpolationmode none
attr source packetSent
attr title "packets sent, sum(packetBytes)"
scalar Multihop.hostB.lo[0].lo rcvdPkFromHl:count 0
attr interpolationmode none
attr source packetReceivedFromUpper
attr title "packets received from higher layer, count"
scalar Multihop.hostB.lo[0].lo rcvdPkFromHl:sum(packetBytes) 0
attr interpolationmode none
attr source packetReceivedFromUpper
attr title "packets received from higher layer, sum(packetBytes)"
scalar Multihop.hostB.lo[0].lo passedUpPk:count 0
attr interpolationmode none
attr source packetSentToUpper
attr title "packets passed to higher layer, count"
scalar Multihop.hostB.lo[0].lo passedUpPk:sum(packetBytes) 0
attr interpolationmode none
attr source packetSentToUpper
attr title "packets passed to higher layer, sum(packetBytes)"
scalar Multihop.hostB.wlan[0].mac.queue packetPopped:count 2
attr interpolationmode none
attr title "packet popped, count"
scalar Multihop.hostB.wlan[0].mac.queue packetPopped:sum(packetBytes) 138
attr interpolationmode none
attr title "packet popped, sum(packetBytes)"
statistic Multihop.hostB.wlan[0].mac.queue queueingTime:histogram
field count 2
field mean 0
field stddev 0
field min 0
field max 0
field sum 0
field sqrsum 0
attr interpolationmode none
attr source queueingTime(packetPopped)
attr title "queueing times, histogram"
attr unit s
bin	-inf	0
bin	-0.5	0
bin	-0.48	0
bin	-0.46	0
bin	-0.44	0
bin	-0.42	0
bin	-0.4	0
bin	-0.38	0
bin	-0.36	0
bin	-0.34	0
bin	-0.32	0
bin	-0.3	0
bin	-0.28	0
bin	-0.26	0
bin	-0.24	0
bin	-0.22	0
bin	-0.2	0
bin	-0.18	0
bin	-0.16	0
bin	-0.14	0
bin	-0.12	0
bin	-0.1	0
bin	-0.08	0
bin	-0.06	0
bin	-0.04	0
bin	-0.02	0
bin	0	2
bin	0.02	0
bin	0.04	0
bin	0.06	0
bin	0.08	0
bin	0.1	0
bin	0.12	0
bin	0.14	0
bin	0.16	0
bin	0.18	0
bin	0.2	0
bin	0.22	0
bin	0.24	0
bin	0.26	0
bin	0.28	0
bin	0.3	0
bin	0.32	0
bin	0.34	0
bin	0.36	0
bin	0.38	0
bin	0.4	0
bin	0.42	0
bin	0.44	0
bin	0.46	0
bin	0.48	0
bin	0.5	0
scalar Multihop.hostB.wlan[0].mac.queue queueLength:max 1
attr interpolationmode sample-hold
attr source "count(packetPushed) - count(packetPopped) - count(packetRemoved) - count(packetDropped)"
attr title "queue length, max"
scalar Multihop.hostB.wlan[0].mac.queue queueLength:timeavg 0
attr interpolationmode sample-hold
attr source "count(packetPushed) - count(packetPopped) - count(packetRemoved) - count(packetDropped)"
attr title "queue length, timeavg"
scalar Multihop.hostB.wlan[0].mac.queue packetPushed:count 2
attr interpolationmode none
attr title "packet pushed, count"
scalar Multihop.hostB.wlan[0].mac.queue packetPushed:sum(packetBytes) 138
attr interpolationmode none
attr title "packet pushed, sum(packetBytes)"
scalar Multihop.hostB.wlan[0].mac.queue packetDropQueueOverflow:count 0
attr interpolationmode none
attr source packetDropReasonIsQueueOverflow(packetDropped)
attr title "packet drops: queue overflow, count"
scalar Multihop.hostB.wlan[0].mac.queue packetDropQueueOverflow:sum(packetBytes) 0
attr interpolationmode none
attr source packetDropReasonIsQueueOverflow(packetDropped)
attr title "packet drops: queue overflow, sum(packetBytes)"
scalar Multihop.hostB.wlan[0].mac.queue packetRemoved:count 0
attr interpolationmode none
attr title "packets removed, count"
scalar Multihop.hostB.wlan[0].mac.queue packetRemoved:sum(packetBytes) 0
attr interpolationmode none
attr title "packets removed, sum(packetBytes)"
scalar Multihop.hostB.wlan[0].mac numRetry 0
scalar Multihop.hostB.wlan[0].mac numSentWithoutRetry 2
scalar Multihop.hostB.wlan[0].mac numGivenUp 0
scalar Multihop.hostB.wlan[0].mac numCollision 2
scalar Multihop.hostB.wlan[0].mac numSent 2
scalar Multihop.hostB.wlan[0].mac numReceived 378
scalar Multihop.hostB.wlan[0].mac numSentBroadcast 0
scalar Multihop.hostB.wlan[0].mac numReceivedBroadcast 2
scalar Multihop.hostB.wlan[0].mac packetDropIncorrectlyReceived:count 2
attr interpolationmode none
attr source packetDropReasonIsIncorrectlyReceived(packetDropped)
attr title "packet drop: incorrectly received, count"
scalar Multihop.hostB.wlan[0].mac packetDropIncorrectlyReceived:sum(packetBytes) 2098
attr interpolationmode none
attr source packetDropReasonIsIncorrectlyReceived(packetDropped)
attr title "packet drop: incorrectly received, sum(packetBytes)"
scalar Multihop.hostB.wlan[0].mac packetDropNotAddressedToUs:count 2
attr interpolationmode none
attr source packetDropReasonIsNotAddressedToUs(packetDropped)
attr title "packet drop: not addressed to us, count"
scalar Multihop.hostB.wlan[0].mac packetDropNotAddressedToUs:sum(packetBytes) 138
attr interpolationmode none
attr source packetDropReasonIsNotAddressedToUs(packetDropped)
attr title "packet drop: not addressed to us, sum(packetBytes)"
scalar Multihop.hostB.wlan[0].mac packetDropQueueOverflow:count 0
attr interpolationmode none
attr source packetDropReasonIsQueueOverflow(packetDropped)
attr title "packet drop: queue overflow, count"
scalar Multihop.hostB.wlan[0].mac packetDropQueueOverflow:sum(packetBytes) 0
attr interpolationmode none
attr source packetDropReasonIsQueueOverflow(packetDropped)
attr title "packet drop: queue overflow, sum(packetBytes)"
scalar Multihop.hostB.wlan[0].mac packetDropRetryLimitReached:count 0
attr interpolationmode none
attr source packetDropReasonIsRetryLimitReached(packetDropped)
attr title "packet drop: retry limit reached, count"
scalar Multihop.hostB.wlan[0].mac packetDropRetryLimitReached:sum(packetBytes) 0
attr interpolationmode none
attr source packetDropReasonIsRetryLimitReached(packetDropped)
attr title "packet drop: retry limit reached, sum(packetBytes)"
scalar Multihop.hostB.wlan[0].mac linkBroken:count 0
attr interpolationmode none
attr source linkBroken
attr title "link break, count"
statistic Multihop.hostB.wlan[0].radio minSnir:histogram
field count 0
field mean nan
field stddev nan
field min nan
field max nan
field sum 0
field sqrsum 0
attr source minimumSnir(packetSentToUpper)
attr title "Min SNIR, histogram"
bin	-inf	0
bin	0	0
bin	1	0
statistic Multihop.hostB.wlan[0].radio packetErrorRate:histogram
field count 755
field mean 0.0026490066225166
field stddev 0.051434359635694
field min 0
field max 1
field sum 2
field sqrsum 2
attr source packetErrorRate(packetSentToUpper)
attr title "Packet error rate, histogram"
bin	-inf	0
bin	0	753
bin	1	2
bin	2	0
statistic Multihop.hostB.wlan[0].radio bitErrorRate:histogram
field count 755
field mean 0.0026490066225166
field stddev 0.051434359635694
field min 0
field max 1
field sum 2
field sqrsum 2
attr source bitErrorRate(packetSentToUpper)
attr title "Bit error rate, histogram"
bin	-inf	0
bin	0	753
bin	1	2
bin	2	0
statistic Multihop.hostB.wlan[0].radio symbolErrorRate:histogram
field count 755
field mean 0.0026490066225166
field stddev 0.051434359635694
field min 0
field max 1
field sum 2
field sqrsum 2
attr source symbolErrorRate(packetSentToUpper)
attr title "Symbol error rate, histogram"
bin	-inf	0
bin	0	753
bin	1	2
bin	2	0
scalar Multihop.hostB.wlan[0].radio transmissionState:count 1520
attr interpolationmode sample-hold
attr source transmissionStateChanged
attr title "Radio transmission state, count"
scalar Multihop.hostB.wlan[0].radio receptionState:count 2939
attr interpolationmode sample-hold
attr source receptionStateChanged
attr title "Radio reception state, count"
scalar Multihop.hostB.wlan[0].radio radioMode:count 763
attr interpolationmode sample-hold
attr source radioModeChanged
attr title "Radio mode, count"
scalar Multihop.hostB.ipv4.ip packetDropAddressResolutionFailed:count 0
attr interpolationmode none
attr source packetDropReasonIsAddressResolutionFailed(packetDropped)
attr title "packet drop: address resolution failed, count"
scalar Multihop.hostB.ipv4.ip packetDropAddressResolutionFailed:sum(packetBytes) 0
attr interpolationmode none
attr source packetDropReasonIsAddressResolutionFailed(packetDropped)
attr title "packet drop: address resolution failed, sum(packetBytes)"
scalar Multihop.hostB.ipv4.ip packetDropHopLimitReached:count 0
attr interpolationmode none
attr source packetDropReasonIsHopLimitReached(packetDropped)
attr title "packet drop: hop limit reached, count"
scalar Multihop.hostB.ipv4.ip packetDropHopLimitReached:sum(packetBytes) 0
attr interpolationmode none
attr source packetDropReasonIsHopLimitReached(packetDropped)
attr title "packet drop: hop limit reached, sum(packetBytes)"
scalar Multihop.hostB.ipv4.ip packetDropForwardingDisabled:count 0
attr interpolationmode none
attr source packetDropReasonIsForwardingDisabled(packetDropped)
attr title "packet drop: forwarding disabled, count"
scalar Multihop.hostB.ipv4.ip packetDropForwardingDisabled:sum(packetBytes) 0
attr interpolationmode none
attr source packetDropReasonIsForwardingDisabled(packetDropped)
attr title "packet drop: forwarding disabled, sum(packetBytes)"
scalar Multihop.hostB.ipv4.ip packetDropNoInterfaceFound:count 0
attr interpolationmode none
attr source packetDropReasonIsNoInterfaceFound(packetDropped)
attr title "packet drop: no interface found, count"
scalar Multihop.hostB.ipv4.ip packetDropNoInterfaceFound:sum(packetBytes) 0
attr interpolationmode none
attr source packetDropReasonIsNoInterfaceFound(packetDropped)
attr title "packet drop: no interface found, sum(packetBytes)"
scalar Multihop.hostB.ipv4.ip packetDropNoRouteFound:count 0
attr interpolationmode none
attr source packetDropReasonIsNoRouteFound(packetDropped)
attr title "packet drop: no route found, count"
scalar Multihop.hostB.ipv4.ip packetDropNoRouteFound:sum(packetBytes) 0
attr interpolationmode none
attr source packetDropReasonIsNoRouteFound(packetDropped)
attr title "packet drop: no route found, sum(packetBytes)"
scalar Multihop.hostB.ipv4.ip packetDropUndefined:count 0
attr interpolationmode none
attr source packetDropReasonIsUndefined(packetDropped)
attr title "packet drop: undefined, count"
scalar Multihop.hostB.ipv4.ip packetDropUndefined:sum(packetBytes) 0
attr interpolationmode none
attr source packetDropReasonIsUndefined(packetDropped)
attr title "packet drop: undefined, sum(packetBytes)"
scalar Multihop.hostB.udp packetReceived:count 380
attr interpolationmode none
attr source packetReceived
attr title "packets received, count"
scalar Multihop.hostB.udp packetReceived:sum(packetBytes) 381088
attr interpolationmode none
attr source packetReceived
attr title "packets received, sum(packetBytes)"
scalar Multihop.hostB.udp packetSent:count 2
attr interpolationmode none
attr source packetSent
attr title "packets sent, count"
scalar Multihop.hostB.udp packetSent:sum(packetBytes) 56
attr interpolationmode none
attr source packetSent
attr title "packets sent, sum(packetBytes)"
scalar Multihop.hostB.udp passedUpPk:count 380
attr interpolationmode none
attr source packetSentToUpper
attr title "packets passed up, count"
scalar Multihop.hostB.udp droppedPkWrongPort:count 0
attr interpolationmode none
attr source packetDropReasonIsNoPortFound(packetDropped)
attr title "packets dropped (wrong port), count"
scalar Multihop.hostB.udp droppedPkBadChecksum:count 0
attr interpolationmode none
attr source packetDropReasonIsIncorrectlyReceived(packetDropped)
attr title "packets dropped (checksum error), count"
scalar Multihop.hostB.app[0] packetReceived:count 378
attr interpolationmode none
attr source packetReceived
attr title "packets received, count"
scalar Multihop.hostB.app[0] packetReceived:sum(packetBytes) 378000
attr interpolationmode none
attr source packetReceived
attr title "packets received, sum(packetBytes)"
statistic Multihop.hostB.app[0] endToEndDelay:histogram
field count 378
field mean 8.1774212763873
field stddev 4.9034630623972
field min 0.895348850292
field max 16.996693099144
field sum 3091.0652424744
field sqrsum 34341.51183213
attr interpolationmode none
attr source dataAge(packetReceived)
attr title "end-to-end delay, histogram"
attr unit s
bin	-inf	0
bin	0	0
bin	0.5	4
bin	1	18
bin	1.5	18
bin	2	17
bin	2.5	13
bin	3	19
bin	3.5	15
bin	4	19
bin	4.5	20
bin	5	17
bin	5.5	16
bin	6	0
bin	6.5	0
bin	7	2
bin	7.5	13
bin	8	2
bin	8.5	7
bin	9	14
bin	9.5	5
bin	10	15
bin	10.5	10
bin	11	9
bin	11.5	7
bin	12	7
bin	12.5	19
bin	13	19
bin	13.5	23
bin	14	16
bin	14.5	8
bin	15	6
bin	15.5	0
bin	16	6
bin	16.5	14
bin	17	0
bin	17.5	0
bin	18	0
bin	18.5	0
bin	19	0
bin	19.5	0
bin	20	0
bin	20.5	0
bin	21	0
bin	21.5	0
scalar Multihop.hostC.lo[0].lo rcvdPkFromHl:count 0
attr interpolationmode none
attr source packetReceivedFromUpper
attr title "packets received from higher layer, count"
scalar Multihop.hostC.lo[0].lo rcvdPkFromHl:sum(packetBytes) 0
attr interpolationmode none
attr source packetReceivedFromUpper
attr title "packets received from higher layer, sum(packetBytes)"
scalar Multihop.hostC.lo[0].lo passedUpPk:count 0
attr interpolationmode none
attr source packetSentToUpper
attr title "packets passed to higher layer, count"
scalar Multihop.hostC.lo[0].lo passedUpPk:sum(packetBytes) 0
attr interpolationmode none
attr source packetSentToUpper
attr title "packets passed to higher layer, sum(packetBytes)"
scalar Multihop.hostC.wlan[0].mac.queue packetPopped:count 247
attr interpolationmode none
attr title "packet popped, count"
scalar Multihop.hostC.wlan[0].mac.queue packetPopped:sum(packetBytes) 253239
attr interpolationmode none
attr title "packet popped, sum(packetBytes)"
statistic Multihop.hostC.wlan[0].mac.queue queueingTime:histogram
field count 247
field mean 2.5185341300621
field stddev 2.9731528657398
field min 0
field max 9.02241047748
field sum 622.07793012535
field sqrsum 3741.275437491
attr interpolationmode none
attr source queueingTime(packetPopped)
attr title "queueing times, histogram"
attr unit s
bin	-inf	0
bin	0	122
bin	0.128	1
bin	0.256	0
bin	0.384	0
bin	0.512	0
bin	0.64	0
bin	0.768	0
bin	0.896	4
bin	1.024	0
bin	1.152	1
bin	1.28	6
bin	1.408	4
bin	1.536	0
bin	1.664	0
bin	1.792	0
bin	1.92	0
bin	2.048	3
bin	2.176	3
bin	2.304	6
bin	2.432	2
bin	2.56	0
bin	2.688	1
bin	2.816	5
bin	2.944	0
bin	3.072	0
bin	3.2	0
bin	3.328	0
bin	3.456	2
bin	3.584	1
bin	3.712	0
bin	3.84	2
bin	3.968	0
bin	4.096	0
bin	4.224	0
bin	4.352	0
bin	4.48	2
bin	4.608	1
bin	4.736	2
bin	4.864	5
bin	4.992	4
bin	5.12	5
bin	5.248	3
bin	5.376	2
bin	5.504	10
bin	5.632	0
bin	5.76	0
bin	5.888	9
bin	6.016	0
bin	6.144	6
bin	6.272	4
bin	6.4	9
bin	6.528	0
bin	6.656	1
bin	6.784	1
bin	6.912	1
bin	7.04	0
bin	7.168	0
bin	7.296	3
bin	7.424	0
bin	7.552	0
bin	7.68	0
bin	7.808	0
bin	7.936	0
bin	8.064	0
bin	8.192	1
bin	8.32	3
bin	8.448	0
bin	8.576	3
bin	8.704	0
bin	8.832	2
bin	8.96	7
bin	9.088	0
scalar Multihop.hostC.wlan[0].mac.queue queueLength:max 309
attr interpolationmode sample-hold
attr source "count(packetPushed) - count(packetPopped) - count(packetRemoved) - count(packetDropped)"
attr title "queue length, max"
scalar Multihop.hostC.wlan[0].mac.queue queueLength:timeavg 116.7275441711
attr interpolationmode sample-hold
attr source "count(packetPushed) - count(packetPopped) - count(packetRemoved) - count(packetDropped)"
attr title "queue length, timeavg"
scalar Multihop.hostC.wlan[0].mac.queue packetPushed:count 498
attr interpolationmode none
attr title "packet pushed, count"
scalar Multihop.hostC.wlan[0].mac.queue packetPushed:sum(packetBytes) 511662
attr interpolationmode none
attr title "packet pushed, sum(packetBytes)"
scalar Multihop.hostC.wlan[0].mac.queue packetDropQueueOverflow:count 0
attr interpolationmode none
attr source packetDropReasonIsQueueOverflow(packetDropped)
attr title "packet drops: queue overflow, count"
scalar Multihop.hostC.wlan[0].mac.queue packetDropQueueOverflow:sum(packetBytes) 0
attr interpolationmode none
attr source packetDropReasonIsQueueOverflow(packetDropped)
attr title "packet drops: queue overflow, sum(packetBytes)"
scalar Multihop.hostC.wlan[0].mac.queue packetRemoved:count 0
attr interpolationmode none
attr title "packets removed, count"
scalar Multihop.hostC.wlan[0].mac.queue packetRemoved:sum(packetBytes) 0
attr interpolationmode none
attr title "packets removed, sum(packetBytes)"
scalar Multihop.hostC.wlan[0].mac numRetry 213
scalar Multihop.hostC.wlan[0].mac numSentWithoutRetry 135
scalar Multihop.hostC.wlan[0].mac numGivenUp 1
scalar Multihop.hostC.wlan[0].mac numCollision 590
scalar Multihop.hostC.wlan[0].mac numSent 241
scalar Multihop.hostC.wlan[0].mac numReceived 706
scalar Multihop.hostC.wlan[0].mac numSentBroadcast 4
scalar Multihop.hostC.wlan[0].mac numReceivedBroadcast 8
scalar Multihop.hostC.wlan[0].mac packetDropIncorrectlyReceived:count 590
attr interpolationmode none
attr source packetDropReasonIsIncorrectlyReceived(packetDropped)
attr title "packet drop: incorrectly received, count"
scalar Multihop.hostC.wlan[0].mac packetDropIncorrectlyReceived:sum(packetBytes) 612082
attr interpolationmode none
attr source packetDropReasonIsIncorrectlyReceived(packetDropped)
attr title "packet drop: incorrectly received, sum(packetBytes)"
scalar Multihop.hostC.wlan[0].mac packetDropNotAddressedToUs:count 49
attr interpolationmode none
attr source packetDropReasonIsNotAddressedToUs(packetDropped)
attr title "packet drop: not addressed to us, count"
scalar Multihop.hostC.wlan[0].mac packetDropNotAddressedToUs:sum(packetBytes) 51401
attr interpolationmode none
attr source packetDropReasonIsNotAddressedToUs(packetDropped)
attr title "packet drop: not addressed to us, sum(packetBytes)"
scalar Multihop.hostC.wlan[0].mac packetDropQueueOverflow:count 0
attr interpolationmode none
attr source packetDropReasonIsQueueOverflow(packetDropped)
attr title "packet drop: queue overflow, count"
scalar Multihop.hostC.wlan[0].mac packetDropQueueOverflow:sum(packetBytes) 0
attr interpolationmode none
attr source packetDropReasonIsQueueOverflow(packetDropped)
attr title "packet drop: queue overflow, sum(packetBytes)"
scalar Multihop.hostC.wlan[0].mac packetDropRetryLimitReached:count 1
attr interpolationmode none
attr source packetDropReasonIsRetryLimitReached(packetDropped)
attr title "packet drop: retry limit reached, count"
scalar Multihop.hostC.wlan[0].mac packetDropRetryLimitReached:sum(packetBytes) 1049
attr interpolationmode none
attr source packetDropReasonIsRetryLimitReached(packetDropped)
attr title "packet drop: retry limit reached, sum(packetBytes)"
scalar Multihop.hostC.wlan[0].mac linkBroken:count 1
attr interpolationmode none
attr source linkBroken
attr title "link break, count"
statistic Multihop.hostC.wlan[0].radio minSnir:histogram
field count 0
field mean nan
field stddev nan
field min nan
field max nan
field sum 0
field sqrsum 0
attr source minimumSnir(packetSentToUpper)
attr title "Min SNIR, histogram"
bin	-inf	0
bin	0	0
bin	1	0
statistic Multihop.hostC.wlan[0].radio packetErrorRate:histogram
field count 1670
field mean 0.39760479041916
field stddev 0.48954951667428
field min 0
field max 1
field sum 664
field sqrsum 664
attr source packetErrorRate(packetSentToUpper)
attr title "Packet error rate, histogram"
bin	-inf	0
bin	0	1006
bin	1	664
bin	2	0
statistic Multihop.hostC.wlan[0].radio bitErrorRate:histogram
field count 1670
field mean 0.39760479041916
field stddev 0.48954951667428
field min 0
field max 1
field sum 664
field sqrsum 664
attr source bitErrorRate(packetSentToUpper)
attr title "Bit error rate, histogram"
bin	-inf	0
bin	0	1006
bin	1	664
bin	2	0
statistic Multihop.hostC.wlan[0].radio symbolErrorRate:histogram
field count 1670
field mean 0.39760479041916
field stddev 0.48954951667428
field min 0
field max 1
field sum 664
field sqrsum 664
attr source symbolErrorRate(packetSentToUpper)
attr title "Symbol error rate, histogram"
bin	-inf	0
bin	0	1006
bin	1	664
bin	2	0
scalar Multihop.hostC.wlan[0].radio transmissionState:count 4662
attr interpolationmode sample-hold
attr source transmissionStateChanged
attr title "Radio transmission state, count"
scalar Multihop.hostC.wlan[0].radio receptionState:count 6232
attr interpolationmode sample-hold
attr source receptionStateChanged
attr title "Radio reception state, count"
scalar Multihop.hostC.wlan[0].radio radioMode:count 2334
attr interpolationmode sample-hold
attr source radioModeChanged
attr title "Radio mode, count"
scalar Multihop.hostC.ipv4.ip packetDropAddressResolutionFailed:count 0
attr interpolationmode none
attr source packetDropReasonIsAddressResolutionFailed(packetDropped)
attr title "packet drop: address resolution failed, count"
scalar Multihop.hostC.ipv4.ip packetDropAddressResolutionFailed:sum(packetBytes) 0
attr interpolationmode none
attr source packetDropReasonIsAddressResolutionFailed(packetDropped)
attr title "packet drop: address resolution failed, sum(packetBytes)"
scalar Multihop.hostC.ipv4.ip packetDropHopLimitReached:count 0
attr interpolationmode none
attr source packetDropReasonIsHopLimitReached(packetDropped)
attr title "packet drop: hop limit reached, count"
scalar Multihop.hostC.ipv4.ip packetDropHopLimitReached:sum(packetBytes) 0
attr interpolationmode none
attr source packetDropReasonIsHopLimitReached(packetDropped)
attr title "packet drop: hop limit reached, sum(packetBytes)"
scalar Multihop.hostC.ipv4.ip packetDropForwardingDisabled:count 0
attr interpolationmode none
attr source packetDropReasonIsForwardingDisabled(packetDropped)
attr title "packet drop: forwarding disabled, count"
scalar Multihop.hostC.ipv4.ip packetDropForwardingDisabled:sum(packetBytes) 0
attr interpolationmode none
attr source packetDropReasonIsForwardingDisabled(packetDropped)
attr title "packet drop: forwarding disabled, sum(packetBytes)"
scalar Multihop.hostC.ipv4.ip packetDropNoInterfaceFound:count 0
attr interpolationmode none
attr source packetDropReasonIsNoInterfaceFound(packetDropped)
attr title "packet drop: no interface found, count"
scalar Multihop.hostC.ipv4.ip packetDropNoInterfaceFound:sum(packetBytes) 0
attr interpolationmode none
attr source packetDropReasonIsNoInterfaceFound(packetDropped)
attr title "packet drop: no interface found, sum(packetBytes)"
scalar Multihop.hostC.ipv4.ip packetDropNoRouteFound:count 0
attr interpolationmode none
attr source packetDropReasonIsNoRouteFound(packetDropped)
attr title "packet drop: no route found, count"
scalar Multihop.hostC.ipv4.ip packetDropNoRouteFound:sum(packetBytes) 0
attr interpolationmode none
attr source packetDropReasonIsNoRouteFound(packetDropped)
attr title "packet drop: no route found, sum(packetBytes)"
scalar Multihop.hostC.ipv4.ip packetDropUndefined:count 0
attr interpolationmode none
attr source packetDropReasonIsUndefined(packetDropped)
attr title "packet drop: undefined, count"
scalar Multihop.hostC.ipv4.ip packetDropUndefined:sum(packetBytes) 0
attr interpolationmode none
attr source packetDropReasonIsUndefined(packetDropped)
attr title "packet drop: undefined, sum(packetBytes)"
scalar Multihop.hostC.udp packetReceived:count 10
attr interpolationmode none
attr source packetReceived
attr title "packets received, count"
scalar Multihop.hostC.udp packetReceived:sum(packetBytes) 312
attr interpolationmode none
attr source packetReceived
attr title "packets received, sum(packetBytes)"
scalar Multihop.hostC.udp packetSent:count 11
attr interpolationmode none
attr source packetSent
attr title "packets sent, count"
scalar Multihop.hostC.udp packetSent:sum(packetBytes) 348
attr interpolationmode none
attr source packetSent
attr title "packets sent, sum(packetBytes)"
scalar Multihop.hostC.udp passedUpPk:count 10
attr interpolationmode none
attr source packetSentToUpper
attr title "packets passed up, count"
scalar Multihop.hostC.udp droppedPkWrongPort:count 0
attr interpolationmode none
attr source packetDropReasonIsNoPortFound(packetDropped)
attr title "packets dropped (wrong port), count"
scalar Multihop.hostC.udp droppedPkBadChecksum:count 0
attr interpolationmode none
attr source packetDropReasonIsIncorrectlyReceived(packetDropped)
attr title "packets dropped (checksum error), count"
scalar Multihop.hostD.lo[0].lo rcvdPkFromHl:count 0
attr interpolationmode none
attr source packetReceivedFromUpper
attr title "packets received from higher layer, count"
scalar Multihop.hostD.lo[0].lo rcvdPkFromHl:sum(packetBytes) 0
attr interpolationmode none
attr source packetReceivedFromUpper
attr title "packets received from higher layer, sum(packetBytes)"
scalar Multihop.hostD.lo[0].lo passedUpPk:count 0
attr interpolationmode none
attr source packetSentToUpper
attr title "packets passed to higher layer, count"
scalar Multihop.hostD.lo[0].lo passedUpPk:sum(packetBytes) 0
attr interpolationmode none
attr source packetSentToUpper
attr title "packets passed to higher layer, sum(packetBytes)"
scalar Multihop.hostD.wlan[0].mac.queue packetPopped:count 3
attr interpolationmode none
attr title "packet popped, count"
scalar Multihop.hostD.wlan[0].mac.queue packetPopped:sum(packetBytes) 219
attr interpolationmode none
attr title "packet popped, sum(packetBytes)"
statistic Multihop.hostD.wlan[0].mac.queue queueingTime:histogram
field count 3
field mean 1.2004715e-05
field stddev 2.0792776310384e-05
field min 0
field max 3.6014145e-05
field sum 3.6014145e-05
field sqrsum 1.297018640081e-09
attr interpolationmode none
attr source queueingTime(packetPopped)
attr title "queueing times, histogram"
attr unit s
bin	-inf	0
bin	0	2
bin	1e-06	0
bin	2e-06	0
bin	3e-06	0
bin	4e-06	0
bin	5e-06	0
bin	6e-06	0
bin	7e-06	0
bin	8e-06	0
bin	9e-06	0
bin	1e-05	0
bin	1.1e-05	0
bin	1.2e-05	0
bin	1.3e-05	0
bin	1.4e-05	0
bin	1.5e-05	0
bin	1.6e-05	0
bin	1.7e-05	0
bin	1.8e-05	0
bin	1.9e-05	0
bin	2e-05	0
bin	2.1e-05	0
bin	2.2e-05	0
bin	2.3e-05	0
bin	2.4e-05	0
bin	2.5e-05	0
bin	2.6e-05	0
bin	2.7e-05	0
bin	2.8e-05	0
bin	2.9e-05	0
bin	3e-05	0
bin	3.1e-05	0
bin	3.2e-05	0
bin	3.3e-05	0
bin	3.4e-05	0
bin	3.5e-05	0
bin	3.6e-05	1
bin	3.7e-05	0
bin	3.8e-05	0
bin	3.9e-05	0
bin	4e-05	0
bin	4.1e-05	0
bin	4.2e-05	0
bin	4.3e-05	0
bin	4.4e-05	0
bin	4.5e-05	0
bin	4.6e-05	0
scalar Multihop.hostD.wlan[0].mac.queue queueLength:max 1
attr interpolationmode sample-hold
attr source "count(packetPushed) - count(packetPopped) - count(packetRemoved) - count(packetDropped)"
attr title "queue length, max"
scalar Multihop.hostD.wlan[0].mac.queue queueLength:timeavg 1.8322950436726e-06
attr interpolationmode sample-hold
attr source "count(packetPushed) - count(packetPopped) - count(packetRemoved) - count(packetDropped)"
attr title "queue length, timeavg"
scalar Multihop.hostD.wlan[0].mac.queue packetPushed:count 3
attr interpolationmode none
attr title "packet pushed, count"
scalar Multihop.hostD.wlan[0].mac.queue packetPushed:sum(packetBytes) 219
attr interpolationmode none
attr title "packet pushed, sum(packetBytes)"
scalar Multihop.hostD.wlan[0].mac.queue packetDropQueueOverflow:count 0
attr interpolationmode none
attr source packetDropReasonIsQueueOverflow(packetDropped)
attr title "packet drops: queue overflow, count"
scalar Multihop.hostD.wlan[0].mac.queue packetDropQueueOverflow:sum(packetBytes) 0
attr interpolationmode none
attr source packetDropReasonIsQueueOverflow(packetDropped)
attr title "packet drops: queue overflow, sum(packetBytes)"
scalar Multihop.hostD.wlan[0].mac.queue packetRemoved:count 0
attr interpolationmode none
attr title "packets removed, count"
scalar Multihop.hostD.wlan[0].mac.queue packetRemoved:sum(packetBytes) 0
attr interpolationmode none
attr title "packets removed, sum(packetBytes)"
scalar Multihop.hostD.wlan[0].mac numRetry 0
scalar Multihop.hostD.wlan[0].mac numSentWithoutRetry 0
scalar Multihop.hostD.wlan[0].mac numGivenUp 0
scalar Multihop.hostD.wlan[0].mac numCollision 481
scalar Multihop.hostD.wlan[0].mac numSent 0
scalar Multihop.hostD.wlan[0].mac numReceived 0
scalar Multihop.hostD.wlan[0].mac numSentBroadcast 3
scalar Multihop.hostD.wlan[0].mac numReceivedBroadcast 7
scalar Multihop.hostD.wlan[0].mac packetDropIncorrectlyReceived:count 481
attr interpolationmode none
attr source packetDropReasonIsIncorrectlyReceived(packetDropped)
attr title "packet drop: incorrectly received, count"
scalar Multihop.hostD.wlan[0].mac packetDropIncorrectlyReceived:sum(packetBytes) 323113
attr interpolationmode none
attr source packetDropReasonIsIncorrectlyReceived(packetDropped)
attr title "packet drop: incorrectly received, sum(packetBytes)"
scalar Multihop.hostD.wlan[0].mac packetDropNotAddressedToUs:count 222
attr interpolationmode none
attr source packetDropReasonIsNotAddressedToUs(packetDropped)
attr title "packet drop: not addressed to us, count"
scalar Multihop.hostD.wlan[0].mac packetDropNotAddressedToUs:sum(packetBytes) 229938
attr interpolationmode none
attr source packetDropReasonIsNotAddressedToUs(packetDropped)
attr title "packet drop: not addressed to us, sum(packetBytes)"
scalar Multihop.hostD.wlan[0].mac packetDropQueueOverflow:count 0
attr interpolationmode none
attr source packetDropReasonIsQueueOverflow(packetDropped)
attr title "packet drop: queue overflow, count"
scalar Multihop.hostD.wlan[0].mac packetDropQueueOverflow:sum(packetBytes) 0
attr interpolationmode none
attr source packetDropReasonIsQueueOverflow(packetDropped)
attr title "packet drop: queue overflow, sum(packetBytes)"
scalar Multihop.hostD.wlan[0].mac packetDropRetryLimitReached:count 0
attr interpolationmode none
attr source packetDropReasonIsRetryLimitReached(packetDropped)
attr title "packet drop: retry limit reached, count"
scalar Multihop.hostD.wlan[0].mac packetDropRetryLimitReached:sum(packetBytes) 0
attr interpolationmode none
attr source packetDropReasonIsRetryLimitReached(packetDropped)
attr title "packet drop: retry limit reached, sum(packetBytes)"
scalar Multihop.hostD.wlan[0].mac linkBroken:count 0
attr interpolationmode none
attr source linkBroken
attr title "link break, count"
statistic Multihop.hostD.wlan[0].radio minSnir:histogram
field count 0
field mean nan
field stddev nan
field min nan
field max nan
field sum 0
field sqrsum 0
attr source minimumSnir(packetSentToUpper)
attr title "Min SNIR, histogram"
bin	-inf	0
bin	0	0
bin	1	0
statistic Multihop.hostD.wlan[0].radio packetErrorRate:histogram
field count 1395
field mean 0.34480286738351
field stddev 0.4754744068959
field min 0
field max 1
field sum 481
field sqrsum 481
attr source packetErrorRate(packetSentToUpper)
attr title "Packet error rate, histogram"
bin	-inf	0
bin	0	914
bin	1	481
bin	2	0
statistic Multihop.hostD.wlan[0].radio bitErrorRate:histogram
field count 1395
field mean 0.34480286738351
field stddev 0.4754744068959
field min 0
field max 1
field sum 481
field sqrsum 481
attr source bitErrorRate(packetSentToUpper)
attr title "Bit error rate, histogram"
bin	-inf	0
bin	0	914
bin	1	481
bin	2	0
statistic Multihop.hostD.wlan[0].radio symbolErrorRate:histogram
field count 1395
field mean 0.34480286738351
field stddev 0.4754744068959
field min 0
field max 1
field sum 481
field sqrsum 481
attr source symbolErrorRate(packetSentToUpper)
attr title "Symbol error rate, histogram"
bin	-inf	0
bin	0	914
bin	1	481
bin	2	0
scalar Multihop.hostD.wlan[0].radio transmissionState:count 12
attr interpolationmode sample-hold
attr source transmissionStateChanged
attr title "Radio transmission state, count"
scalar Multihop.hostD.wlan[0].radio receptionState:count 5418
attr interpolationmode sample-hold
attr source receptionStateChanged
attr title "Radio reception state, count"
scalar Multihop.hostD.wlan[0].radio radioMode:count 9
attr interpolationmode sample-hold
attr source radioModeChanged
attr title "Radio mode, count"
scalar Multihop.hostD.ipv4.ip packetDropAddressResolutionFailed:count 0
attr interpolationmode none
attr source packetDropReasonIsAddressResolutionFailed(packetDropped)
attr title "packet drop: address resolution failed, count"
scalar Multihop.hostD.ipv4.ip packetDropAddressResolutionFailed:sum(packetBytes) 0
attr interpolationmode none
attr source packetDropReasonIsAddressResolutionFailed(packetDropped)
attr title "packet drop: address resolution failed, sum(packetBytes)"
scalar Multihop.hostD.ipv4.ip packetDropHopLimitReached:count 0
attr interpolationmode none
attr source packetDropReasonIsHopLimitReached(packetDropped)
attr title "packet drop: hop limit reached, count"
scalar Multihop.hostD.ipv4.ip packetDropHopLimitReached:sum(packetBytes) 0
attr interpolationmode none
attr source packetDropReasonIsHopLimitReached(packetDropped)
attr title "packet drop: hop limit reached, sum(packetBytes)"
scalar Multihop.hostD.ipv4.ip packetDropForwardingDisabled:count 0
attr interpolationmode none
attr source packetDropReasonIsForwardingDisabled(packetDropped)
attr title "packet drop: forwarding disabled, count"
scalar Multihop.hostD.ipv4.ip packetDropForwardingDisabled:sum(packetBytes) 0
attr interpolationmode none
attr source packetDropReasonIsForwardingDisabled(packetDropped)
attr title "packet drop: forwarding disabled, sum(packetBytes)"
scalar Multihop.hostD.ipv4.ip packetDropNoInterfaceFound:count 0
attr interpolationmode none
attr source packetDropReasonIsNoInterfaceFound(packetDropped)
attr title "packet drop: no interface found, count"
scalar Multihop.hostD.ipv4.ip packetDropNoInterfaceFound:sum(packetBytes) 0
attr interpolationmode none
attr source packetDropReasonIsNoInterfaceFound(packetDropped)
attr title "packet drop: no interface found, sum(packetBytes)"
scalar Multihop.hostD.ipv4.ip packetDropNoRouteFound:count 0
attr interpolationmode none
attr source packetDropReasonIsNoRouteFound(packetDropped)
attr title "packet drop: no route found, count"
scalar Multihop.hostD.ipv4.ip packetDropNoRouteFound:sum(packetBytes) 0
attr interpolationmode none
attr source packetDropReasonIsNoRouteFound(packetDropped)
attr title "packet drop: no route found, sum(packetBytes)"
scalar Multihop.hostD.ipv4.ip packetDropUndefined:count 0
attr interpolationmode none
attr source packetDropReasonIsUndefined(packetDropped)
attr title "packet drop: undefined, count"
scalar Multihop.hostD.ipv4.ip packetDropUndefined:sum(packetBytes) 0
attr interpolationmode none
attr source packetDropReasonIsUndefined(packetDropped)
attr title "packet drop: undefined, sum(packetBytes)"
scalar Multihop.hostD.udp packetReceived:count 7
attr interpolationmode none
attr source packetReceived
attr title "packets received, count"
scalar Multihop.hostD.udp packetReceived:sum(packetBytes) 224
attr interpolationmode none
attr source packetReceived
attr title "packets received, sum(packetBytes)"
scalar Multihop.hostD.udp packetSent:count 3
attr interpolationmode none
attr source packetSent
attr title "packets sent, count"
scalar Multihop.hostD.udp packetSent:sum(packetBytes) 96
attr interpolationmode none
attr source packetSent
attr title "packets sent, sum(packetBytes)"
scalar Multihop.hostD.udp passedUpPk:count 7
attr interpolationmode none
attr source packetSentToUpper
attr title "packets passed up, count"
scalar Multihop.hostD.udp droppedPkWrongPort:count 0
attr interpolationmode none
attr source packetDropReasonIsNoPortFound(packetDropped)
attr title "packets dropped (wrong port), count"
scalar Multihop.hostD.udp droppedPkBadChecksum:count 0
attr interpolationmode none
attr source packetDropReasonIsIncorrectlyReceived(packetDropped)
attr title "packets dropped (checksum error), count"
scalar Multihop.hostE.lo[0].lo rcvdPkFromHl:count 0
attr interpolationmode none
attr source packetReceivedFromUpper
attr title "packets received from higher layer, count"
scalar Multihop.hostE.lo[0].lo rcvdPkFromHl:sum(packetBytes) 0
attr interpolationmode none
attr source packetReceivedFromUpper
attr title "packets received from higher layer, sum(packetBytes)"
scalar Multihop.hostE.lo[0].lo passedUpPk:count 0
attr interpolationmode none
attr source packetSentToUpper
attr title "packets passed to higher layer, count"
scalar Multihop.hostE.lo[0].lo passedUpPk:sum(packetBytes) 0
attr interpolationmode none
attr source packetSentToUpper
attr title "packets passed to higher layer, sum(packetBytes)"
scalar Multihop.hostE.wlan[0].mac.queue packetPopped:count 318
attr interpolationmode none
attr title "packet popped, count"
scalar Multihop.hostE.wlan[0].mac.queue packetPopped:sum(packetBytes) 328694
attr interpolationmode none
attr title "packet popped, sum(packetBytes)"
statistic Multihop.hostE.wlan[0].mac.queue queueingTime:histogram
field count 318
field mean 0.029817509973572
field stddev 0.064740466613101
field min 0
field max 0.329549678892
field sum 9.481968171596
field sqrsum 1.6113796620041
attr interpolationmode none
attr source queueingTime(packetPopped)
attr title "queueing times, histogram"
attr unit s
bin	-inf	0
bin	0	206
bin	0.004	0
bin	0.008	25
bin	0.012	0
bin	0.016	12
bin	0.02	1
bin	0.024	4
bin	0.028	1
bin	0.032	0
bin	0.036	8
bin	0.04	1
bin	0.044	5
bin	0.048	1
bin	0.052	1
bin	0.056	0
bin	0.06	3
bin	0.064	2
bin	0.068	1
bin	0.072	2
bin	0.076	0
bin	0.08	3
bin	0.084	1
bin	0.088	1
bin	0.092	0
bin	0.096	2
bin	0.1	4
bin	0.104	1
bin	0.108	3
bin	0.112	1
bin	0.116	0
bin	0.12	2
bin	0.124	1
bin	0.128	0
bin	0.132	1
bin	0.136	0
bin	0.14	0
bin	0.144	2
bin	0.148	3
bin	0.152	0
bin	0.156	0
bin	0.16	0
bin	0.164	1
bin	0.168	0
bin	0.172	0
bin	0.176	1
bin	0.18	0
bin	0.184	1
bin	0.188	0
bin	0.192	1
bin	0.196	0
bin	0.2	1
bin	0.204	1
bin	0.208	0
bin	0.212	0
bin	0.216	2
bin	0.22	0
bin	0.224	0
bin	0.228	0
bin	0.232	1
bin	0.236	0
bin	0.24	1
bin	0.244	0
bin	0.248	3
bin	0.252	0
bin	0.256	0
bin	0.26	1
bin	0.264	0
bin	0.268	0
bin	0.272	0
bin	0.276	1
bin	0.28	1
bin	0.284	2
bin	0.288	0
bin	0.292	0
bin	0.296	0
bin	0.3	0
bin	0.304	1
bin	0.308	0
bin	0.312	0
bin	0.316	0
bin	0.32	0
bin	0.324	0
bin	0.328	1
bin	0.332	0
scalar Multihop.hostE.wlan[0].mac.queue queueLength:max 9
attr interpolationmode sample-hold
attr source "count(packetPushed) - count(packetPopped) - count(packetRemoved) - count(packetDropped)"
attr title "queue length, max"
scalar Multihop.hostE.wlan[0].mac.queue queueLength:timeavg 0.48238789457267
attr interpolationmode sample-hold
attr source "count(packetPushed) - count(packetPopped) - count(packetRemoved) - count(packetDropped)"
attr title "queue length, timeavg"
scalar Multihop.hostE.wlan[0].mac.queue packetPushed:count 318
attr interpolationmode none
attr title "packet pushed, count"
scalar Multihop.hostE.wlan[0].mac.queue packetPushed:sum(packetBytes) 328694
attr interpolationmode none
attr title "packet pushed, sum(packetBytes)"
scalar Multihop.hostE.wlan[0].mac.queue packetDropQueueOverflow:count 0
attr interpolationmode none
attr source packetDropReasonIsQueueOverflow(packetDropped)
attr title "packet drops: queue overflow, count"
scalar Multihop.hostE.wlan[0].mac.queue packetDropQueueOverflow:sum(packetBytes) 0
attr interpolationmode none
attr source packetDropReasonIsQueueOverflow(packetDropped)
attr title "packet drops: queue overflow, sum(packetBytes)"
scalar Multihop.hostE.wlan[0].mac.queue packetRemoved:count 0
attr interpolationmode none
attr title "packets removed, count"
scalar Multihop.hostE.wlan[0].mac.queue packetRemoved:sum(packetBytes) 0
attr interpolationmode none
attr title "packets removed, sum(packetBytes)"
scalar Multihop.hostE.wlan[0].mac numRetry 188
scalar Multihop.hostE.wlan[0].mac numSentWithoutRetry 207
scalar Multihop.hostE.wlan[0].mac numGivenUp 0
scalar Multihop.hostE.wlan[0].mac numCollision 164
scalar Multihop.hostE.wlan[0].mac numSent 315
scalar Multihop.hostE.wlan[0].mac numReceived 315
scalar Multihop.hostE.wlan[0].mac numSentBroadcast 3
scalar Multihop.hostE.wlan[0].mac numReceivedBroadcast 10
scalar Multihop.hostE.wlan[0].mac packetDropIncorrectlyReceived:count 164
attr interpolationmode none
attr source packetDropReasonIsIncorrectlyReceived(packetDropped)
attr title "packet drop: incorrectly received, count"
scalar Multihop.hostE.wlan[0].mac packetDropIncorrectlyReceived:sum(packetBytes) 172036
attr interpolationmode none
attr source packetDropReasonIsIncorrectlyReceived(packetDropped)
attr title "packet drop: incorrectly received, sum(packetBytes)"
scalar Multihop.hostE.wlan[0].mac packetDropNotAddressedToUs:count 220
attr interpolationmode none
attr source packetDropReasonIsNotAddressedToUs(packetDropped)
attr title "packet drop: not addressed to us, count"
scalar Multihop.hostE.wlan[0].mac packetDropNotAddressedToUs:sum(packetBytes) 228820
attr interpolationmode none
attr source packetDropReasonIsNotAddressedToUs(packetDropped)
attr title "packet drop: not addressed to us, sum(packetBytes)"
scalar Multihop.hostE.wlan[0].mac packetDropQueueOverflow:count 0
attr interpolationmode none
attr source packetDropReasonIsQueueOverflow(packetDropped)
attr title "packet drop: queue overflow, count"
scalar Multihop.hostE.wlan[0].mac packetDropQueueOverflow:sum(packetBytes) 0
attr interpolationmode none
attr source packetDropReasonIsQueueOverflow(packetDropped)
attr title "packet drop: queue overflow, sum(packetBytes)"
scalar Multihop.hostE.wlan[0].mac packetDropRetryLimitReached:count 0
attr interpolationmode none
attr source packetDropReasonIsRetryLimitReached(packetDropped)
attr title "packet drop: retry limit reached, count"
scalar Multihop.hostE.wlan[0].mac packetDropRetryLimitReached:sum(packetBytes) 0
attr interpolationmode none
attr source packetDropReasonIsRetryLimitReached(packetDropped)
attr title "packet drop: retry limit reached, sum(packetBytes)"
scalar Multihop.hostE.wlan[0].mac linkBroken:count 0
attr interpolationmode none
attr source linkBroken
attr title "link break, count"
statistic Multihop.hostE.wlan[0].radio minSnir:histogram
field count 0
field mean nan
field stddev nan
field min nan
field max nan
field sum 0
field sqrsum 0
attr source minimumSnir(packetSentToUpper)
attr title "Min SNIR, histogram"
bin	-inf	0
bin	0	0
bin	1	0
statistic Multihop.hostE.wlan[0].radio packetErrorRate:histogram
field count 1723
field mean 0.10621009866512
field stddev 0.3081957836873
field min 0
field max 1
field sum 183
field sqrsum 183
attr source packetErrorRate(packetSentToUpper)
attr title "Packet error rate, histogram"
bin	-inf	0
bin	-0.5	0
bin	-0.48	0
bin	-0.46	0
bin	-0.44	0
bin	-0.42	0
bin	-0.4	0
bin	-0.38	0
bin	-0.36	0
bin	-0.34	0
bin	-0.32	0
bin	-0.3	0
bin	-0.28	0
bin	-0.26	0
bin	-0.24	0
bin	-0.22	0
bin	-0.2	0
bin	-0.18	0
bin	-0.16	0
bin	-0.14	0
bin	-0.12	0
bin	-0.1	0
bin	-0.08	0
bin	-0.06	0
bin	-0.04	0
bin	-0.02	0
bin	0	1540
bin	0.02	0
bin	0.04	0
bin	0.06	0
bin	0.08	0
bin	0.1	0
bin	0.12	0
bin	0.14	0
bin	0.16	0
bin	0.18	0
bin	0.2	0
bin	0.22	0
bin	0.24	0
bin	0.26	0
bin	0.28	0
bin	0.3	0
bin	0.32	0
bin	0.34	0
bin	0.36	0
bin	0.38	0
bin	0.4	0
bin	0.42	0
bin	0.44	0
bin	0.46	0
bin	0.48	0
bin	0.5	0
bin	0.52	0
bin	0.54	0
bin	0.56	0
bin	0.58	0
bin	0.6	0
bin	0.62	0
bin	0.64	0
bin	0.66	0
bin	0.68	0
bin	0.7	0
bin	0.72	0
bin	0.74	0
bin	0.76	0
bin	0.78	0
bin	0.8	0
bin	0.82	0
bin	0.84	0
bin	0.86	0
bin	0.88	0
bin	0.9	0
bin	0.92	0
bin	0.94	0
bin	0.96	0
bin	0.98	0
bin	1	183
bin	1.02	0
statistic Multihop.hostE.wlan[0].radio bitErrorRate:histogram
field count 1723
field mean 0.10621009866512
field stddev 0.3081957836873
field min 0
field max 1
field sum 183
field sqrsum 183
attr source bitErrorRate(packetSentToUpper)
attr title "Bit error rate, histogram"
bin	-inf	0
bin	-0.5	0
bin	-0.48	0
bin	-0.46	0
bin	-0.44	0
bin	-0.42	0
bin	-0.4	0
bin	-0.38	0
bin	-0.36	0
bin	-0.34	0
bin	-0.32	0
bin	-0.3	0
bin	-0.28	0
bin	-0.26	0
bin	-0.24	0
bin	-0.22	0
bin	-0.2	0
bin	-0.18	0
bin	-0.16	0
bin	-0.14	0
bin	-0.12	0
bin	-0.1	0
bin	-0.08	0
bin	-0.06	0
bin	-0.04	0
bin	-0.02	0
bin	0	1540
bin	0.02	0
bin	0.04	0
bin	0.06	0
bin	0.08	0
bin	0.1	0
bin	0.12	0
bin	0.14	0
bin	0.16	0
bin	0.18	0
bin	0.2	0
bin	0.22	0
bin	0.24	0
bin	0.26	0
bin	0.28	0
bin	0.3	0
bin	0.32	0
bin	0.34	0
bin	0.36	0
bin	0.38	0
bin	0.4	0
bin	0.42	0
bin	0.44	0
bin	0.46	0
bin	0.48	0
bin	0.5	0
bin	0.52	0
bin	0.54	0
bin	0.56	0
bin	0.58	0
bin	0.6	0
bin	0.62	0
bin	0.64	0
bin	0.66	0
bin	0.68	0
bin	0.7	0
bin	0.72	0
bin	0.74	0
bin	0.76	0
bin	0.78	0
bin	0.8	0
bin	0.82	0
bin	0.84	0
bin	0.86	0
bin	0.88	0
bin	0.9	0
bin	0.92	0
bin	0.94	0
bin	0.96	0
bin	0.98	0
bin	1	183
bin	1.02	0
statistic Multihop.hostE.wlan[0].radio symbolErrorRate:histogram
field count 1723
field mean 0.10621009866512
field stddev 0.3081957836873
field min 0
field max 1
field sum 183
field sqrsum 183
attr source symbolErrorRate(packetSentToUpper)
attr title "Symbol error rate, histogram"
bin	-inf	0
bin	-0.5	0
bin	-0.48	0
bin	-0.46	0
bin	-0.44	0
bin	-0.42	0
bin	-0.4	0
bin	-0.38	0
bin	-0.36	0
bin	-0.34	0
bin	-0.32	0
bin	-0.3	0
bin	-0.28	0
bin	-0.26	0
bin	-0.24	0
bin	-0.22	0
bin	-0.2	0
bin	-0.18	0
bin	-0.16	0
bin	-0.14	0
bin	-0.12	0
bin	-0.1	0
bin	-0.08	0
bin	-0.06	0
bin	-0.04	0
bin	-0.02	0
bin	0	1540
bin	0.02	0
bin	0.04	0
bin	0.06	0
bin	0.08	0
bin	0.1	0
bin	0.12	0
bin	0.14	0
bin	0.16	0
bin	0.18	0
bin	0.2	0
bin	0.22	0
bin	0.24	0
bin	0.26	0
bin	0.28	0
bin	0.3	0
bin	0.32	0
bin	0.34	0
bin	0.36	0
bin	0.38	0
bin	0.4	0
bin	0.42	0
bin	0.44	0
bin	0.46	0
bin	0.48	0
bin	0.5	0
bin	0.52	0
bin	0.54	0
bin	0.56	0
bin	0.58	0
bin	0.6	0
bin	0.62	0
bin	0.64	0
bin	0.66	0
bin	0.68	0
bin	0.7	0
bin	0.72	0
bin	0.74	0
bin	0.76	0
bin	0.78	0
bin	0.8	0
bin	0.82	0
bin	0.84	0
bin	0.86	0
bin	0.88	0
bin	0.9	0
bin	0.92	0
bin	0.94	0
bin	0.96	0
bin	0.98	0
bin	1	183
bin	1.02	0
scalar Multihop.hostE.wlan[0].radio transmissionState:count 3284
attr interpolationmode sample-hold
attr source transmissionStateChanged
attr title "Radio transmission state, count"
scalar Multihop.hostE.wlan[0].radio receptionState:count 5202
attr interpolationmode sample-hold
attr source receptionStateChanged
attr title "Radio reception state, count"
scalar Multihop.hostE.wlan[0].radio radioMode:count 1645
attr interpolationmode sample-hold
attr source radioModeChanged
attr title "Radio mode, count"
scalar Multihop.hostE.ipv4.ip packetDropAddressResolutionFailed:count 0
attr interpolationmode none
attr source packetDropReasonIsAddressResolutionFailed(packetDropped)
attr title "packet drop: address resolution failed, count"
scalar Multihop.hostE.ipv4.ip packetDropAddressResolutionFailed:sum(packetBytes) 0
attr interpolationmode none
attr source packetDropReasonIsAddressResolutionFailed(packetDropped)
attr title "packet drop: address resolution failed, sum(packetBytes)"
scalar Multihop.hostE.ipv4.ip packetDropHopLimitReached:count 0
attr interpolationmode none
attr source packetDropReasonIsHopLimitReached(packetDropped)
attr title "packet drop: hop limit reached, count"
scalar Multihop.hostE.ipv4.ip packetDropHopLimitReached:sum(packetBytes) 0
attr interpolationmode none
attr source packetDropReasonIsHopLimitReached(packetDropped)
attr title "packet drop: hop limit reached, sum(packetBytes)"
scalar Multihop.hostE.ipv4.ip packetDropForwardingDisabled:count 0
attr interpolationmode none
attr source packetDropReasonIsForwardingDisabled(packetDropped)
attr title "packet drop: forwarding disabled, count"
scalar Multihop.hostE.ipv4.ip packetDropForwardingDisabled:sum(packetBytes) 0
attr interpolationmode none
attr source packetDropReasonIsForwardingDisabled(packetDropped)
attr title "packet drop: forwarding disabled, sum(packetBytes)"
scalar Multihop.hostE.ipv4.ip packetDropNoInterfaceFound:count 0
attr interpolationmode none
attr source packetDropReasonIsNoInterfaceFound(packetDropped)
attr title "packet drop: no interface found, count"
scalar Multihop.hostE.ipv4.ip packetDropNoInterfaceFound:sum(packetBytes) 0
attr interpolationmode none
attr source packetDropReasonIsNoInterfaceFound(packetDropped)
attr title "packet drop: no interface found, sum(packetBytes)"
scalar Multihop.hostE.ipv4.ip packetDropNoRouteFound:count 0
attr interpolationmode none
attr source packetDropReasonIsNoRouteFound(packetDropped)
attr title "packet drop: no route found, count"
scalar Multihop.hostE.ipv4.ip packetDropNoRouteFound:sum(packetBytes) 0
attr interpolationmode none
attr source packetDropReasonIsNoRouteFound(packetDropped)
attr title "packet drop: no route found, sum(packetBytes)"
scalar Multihop.hostE.ipv4.ip packetDropUndefined:count 0
attr interpolationmode none
attr source packetDropReasonIsUndefined(packetDropped)
attr title "packet drop: undefined, count"
scalar Multihop.hostE.ipv4.ip packetDropUndefined:sum(packetBytes) 0
attr interpolationmode none
attr source packetDropReasonIsUndefined(packetDropped)
attr title "packet drop: undefined, sum(packetBytes)"
scalar Multihop.hostE.udp packetReceived:count 12
attr interpolationmode none
attr source packetReceived
attr title "packets received, count"
scalar Multihop.hostE.udp packetReceived:sum(packetBytes) 376
attr interpolationmode none
attr source packetReceived
attr title "packets received, sum(packetBytes)"
scalar Multihop.hostE.udp packetSent:count 5
attr interpolationmode none
attr source packetSent
attr title "packets sent, count"
scalar Multihop.hostE.udp packetSent:sum(packetBytes) 152
attr interpolationmode none
attr source packetSent
attr title "packets sent, sum(packetBytes)"
scalar Multihop.hostE.udp passedUpPk:count 12
attr interpolationmode none
attr source packetSentToUpper
attr title "packets passed up, count"
scalar Multihop.hostE.udp droppedPkWrongPort:count 0
attr interpolationmode none
attr source packetDropReasonIsNoPortFound(packetDropped)
attr title "packets dropped (wrong port), count"
scalar Multihop.hostE.udp droppedPkBadChecksum:count 0
attr interpolationmode none
attr source packetDropReasonIsIncorrectlyReceived(packetDropped)
attr title "packets dropped (checksum error), count"
scalar Multihop.hostF.lo[0].lo rcvdPkFromHl:count 0
attr interpolationmode none
attr source packetReceivedFromUpper
attr title "packets received from higher layer, count"
scalar Multihop.hostF.lo[0].lo rcvdPkFromHl:sum(packetBytes) 0
attr interpolationmode none
attr source packetReceivedFromUpper
attr title "packets received from higher layer, sum(packetBytes)"
scalar Multihop.hostF.lo[0].lo passedUpPk:count 0
attr interpolationmode none
attr source packetSentToUpper
attr title "packets passed to higher layer, count"
scalar Multihop.hostF.lo[0].lo passedUpPk:sum(packetBytes) 0
attr interpolationmode none
attr source packetSentToUpper
attr title "packets passed to higher layer, sum(packetBytes)"
scalar Multihop.hostF.wlan[0].mac.queue packetPopped:count 184
attr interpolationmode none
attr title "packet popped, count"
scalar Multihop.hostF.wlan[0].mac.queue packetPopped:sum(packetBytes) 189108
attr interpolationmode none
attr title "packet popped, sum(packetBytes)"
statistic Multihop.hostF.wlan[0].mac.queue queueingTime:histogram
field count 184
field mean 0.0035713503458478
field stddev 0.0094888040057991
field min 0
field max 0.047063666436
field sum 0.657128463636
field sqrsum 0.018823680433139
attr interpolationmode none
attr source queueingTime(packetPopped)
attr title "queueing times, histogram"
attr unit s
bin	-inf	0
bin	0	150
bin	0.0006	0
bin	0.0012	0
bin	0.0018	0
bin	0.0024	0
bin	0.003	0
bin	0.0036	0
bin	0.0042	0
bin	0.0048	0
bin	0.0054	0
bin	0.006	0
bin	0.0066	0
bin	0.0072	0
bin	0.0078	0
bin	0.0084	0
bin	0.009	19
bin	0.0096	0
bin	0.0102	0
bin	0.0108	0
bin	0.0114	0
bin	0.012	0
bin	0.0126	0
bin	0.0132	0
bin	0.0138	0
bin	0.0144	0
bin	0.015	0
bin	0.0156	0
bin	0.0162	0
bin	0.0168	0
bin	0.0174	0
bin	0.018	4
bin	0.0186	0
bin	0.0192	0
bin	0.0198	0
bin	0.0204	0
bin	0.021	0
bin	0.0216	0
bin	0.0222	0
bin	0.0228	0
bin	0.0234	0
bin	0.024	0
bin	0.0246	0
bin	0.0252	0
bin	0.0258	0
bin	0.0264	1
bin	0.027	2
bin	0.0276	1
bin	0.0282	0
bin	0.0288	0
bin	0.0294	0
bin	0.03	0
bin	0.0306	0
bin	0.0312	0
bin	0.0318	0
bin	0.0324	0
bin	0.033	0
bin	0.0336	0
bin	0.0342	0
bin	0.0348	1
bin	0.0354	1
bin	0.036	0
bin	0.0366	0
bin	0.0372	0
bin	0.0378	0
bin	0.0384	0
bin	0.039	0
bin	0.0396	0
bin	0.0402	0
bin	0.0408	0
bin	0.0414	0
bin	0.042	0
bin	0.0426	0
bin	0.0432	0
bin	0.0438	0
bin	0.0444	2
bin	0.045	1
bin	0.0456	0
bin	0.0462	1
bin	0.0468	1
bin	0.0474	0
scalar Multihop.hostF.wlan[0].mac.queue queueLength:max 3
attr interpolationmode sample-hold
attr source "count(packetPushed) - count(packetPopped) - count(packetRemoved) - count(packetDropped)"
attr title "queue length, max"
scalar Multihop.hostF.wlan[0].mac.queue queueLength:timeavg 0.033435549801896
attr interpolationmode sample-hold
attr source "count(packetPushed) - count(packetPopped) - count(packetRemoved) - count(packetDropped)"
attr title "queue length, timeavg"
scalar Multihop.hostF.wlan[0].mac.queue packetPushed:count 184
attr interpolationmode none
attr title "packet pushed, count"
scalar Multihop.hostF.wlan[0].mac.queue packetPushed:sum(packetBytes) 189108
attr interpolationmode none
attr title "packet pushed, sum(packetBytes)"
scalar Multihop.hostF.wlan[0].mac.queue packetDropQueueOverflow:count 0
attr interpolationmode none
attr source packetDropReasonIsQueueOverflow(packetDropped)
attr title "packet drops: queue overflow, count"
scalar Multihop.hostF.wlan[0].mac.queue packetDropQueueOverflow:sum(packetBytes) 0
attr interpolationmode none
attr source packetDropReasonIsQueueOverflow(packetDropped)
attr title "packet drops: queue overflow, sum(packetBytes)"
scalar Multihop.hostF.wlan[0].mac.queue packetRemoved:count 0
attr interpolationmode none
attr title "packets removed, count"
scalar Multihop.hostF.wlan[0].mac.queue packetRemoved:sum(packetBytes) 0
attr interpolationmode none
attr title "packets removed, sum(packetBytes)"
scalar Multihop.hostF.wlan[0].mac numRetry 24
scalar Multihop.hostF.wlan[0].mac numSentWithoutRetry 158
scalar Multihop.hostF.wlan[0].mac numGivenUp 0
scalar Multihop.hostF.wlan[0].mac numCollision 203
scalar Multihop.hostF.wlan[0].mac numSent 180
scalar Multihop.hostF.wlan[0].mac numReceived 181
scalar Multihop.hostF.wlan[0].mac numSentBroadcast 3
scalar Multihop.hostF.wlan[0].mac numReceivedBroadcast 6
scalar Multihop.hostF.wlan[0].mac packetDropIncorrectlyReceived:count 203
attr interpolationmode none
attr source packetDropReasonIsIncorrectlyReceived(packetDropped)
attr title "packet drop: incorrectly received, count"
scalar Multihop.hostF.wlan[0].mac packetDropIncorrectlyReceived:sum(packetBytes) 195475
attr interpolationmode none
attr source packetDropReasonIsIncorrectlyReceived(packetDropped)
attr title "packet drop: incorrectly received, sum(packetBytes)"
scalar Multihop.hostF.wlan[0].mac packetDropNotAddressedToUs:count 357
attr interpolationmode none
attr source packetDropReasonIsNotAddressedToUs(packetDropped)
attr title "packet drop: not addressed to us, count"
scalar Multihop.hostF.wlan[0].mac packetDropNotAddressedToUs:sum(packetBytes) 371553
attr interpolationmode none
attr source packetDropReasonIsNotAddressedToUs(packetDropped)
attr title "packet drop: not addressed to us, sum(packetBytes)"
scalar Multihop.hostF.wlan[0].mac packetDropQueueOverflow:count 0
attr interpolationmode none
attr source packetDropReasonIsQueueOverflow(packetDropped)
attr title "packet drop: queue overflow, count"
scalar Multihop.hostF.wlan[0].mac packetDropQueueOverflow:sum(packetBytes) 0
attr interpolationmode none
attr source packetDropReasonIsQueueOverflow(packetDropped)
attr title "packet drop: queue overflow, sum(packetBytes)"
scalar Multihop.hostF.wlan[0].mac packetDropRetryLimitReached:count 0
attr interpolationmode none
attr source packetDropReasonIsRetryLimitReached(packetDropped)
attr title "packet drop: retry limit reached, count"
scalar Multihop.hostF.wlan[0].mac packetDropRetryLimitReached:sum(packetBytes) 0
attr interpolationmode none
attr source packetDropReasonIsRetryLimitReached(packetDropped)
attr title "packet drop: retry limit reached, sum(packetBytes)"
scalar Multihop.hostF.wlan[0].mac linkBroken:count 0
attr interpolationmode none
attr source linkBroken
attr title "link break, count"
statistic Multihop.hostF.wlan[0].radio minSnir:histogram
field count 0
field mean nan
field stddev nan
field min nan
field max nan
field sum 0
field sqrsum 0
attr source minimumSnir(packetSentToUpper)
attr title "Min SNIR, histogram"
bin	-inf	0
bin	0	0
bin	1	0
statistic Multihop.hostF.wlan[0].radio packetErrorRate:histogram
field count 1379
field mean 0.15736040609137
field stddev 0.36427233456401
field min 0
field max 1
field sum 217
field sqrsum 217
attr source packetErrorRate(packetSentToUpper)
attr title "Packet error rate, histogram"
bin	-inf	0
bin	0	1162
bin	1	217
bin	2	0
statistic Multihop.hostF.wlan[0].radio bitErrorRate:histogram
field count 1379
field mean 0.15736040609137
field stddev 0.36427233456401
field min 0
field max 1
field sum 217
field sqrsum 217
attr source bitErrorRate(packetSentToUpper)
attr title "Bit error rate, histogram"
bin	-inf	0
bin	0	1162
bin	1	217
bin	2	0
statistic Multihop.hostF.wlan[0].radio symbolErrorRate:histogram
field count 1379
field mean 0.15736040609137
field stddev 0.36427233456401
field min 0
field max 1
field sum 217
field sqrsum 217
attr source symbolErrorRate(packetSentToUpper)
attr title "Symbol error rate, histogram"
bin	-inf	0
bin	0	1162
bin	1	217
bin	2	0
scalar Multihop.hostF.wlan[0].radio transmissionState:count 1554
attr interpolationmode sample-hold
attr source transmissionStateChanged
attr title "Radio transmission state, count"
scalar Multihop.hostF.wlan[0].radio receptionState:count 3675
attr interpolationmode sample-hold
attr source receptionStateChanged
attr title "Radio reception state, count"
scalar Multihop.hostF.wlan[0].radio radioMode:count 780
attr interpolationmode sample-hold
attr source radioModeChanged
attr title "Radio mode, count"
scalar Multihop.hostF.ipv4.ip packetDropAddressResolutionFailed:count 0
attr interpolationmode none
attr source packetDropReasonIsAddressResolutionFailed(packetDropped)
attr title "packet drop: address resolution failed, count"
scalar Multihop.hostF.ipv4.ip packetDropAddressResolutionFailed:sum(packetBytes) 0
attr interpolationmode none
attr source packetDropReasonIsAddressResolutionFailed(packetDropped)
attr title "packet drop: address resolution failed, sum(packetBytes)"
scalar Multihop.hostF.ipv4.ip packetDropHopLimitReached:count 0
attr interpolationmode none
attr source packetDropReasonIsHopLimitReached(packetDropped)
attr title "packet drop: hop limit reached, count"
scalar Multihop.hostF.ipv4.ip packetDropHopLimitReached:sum(packetBytes) 0
attr interpolationmode none
attr source packetDropReasonIsHopLimitReached(packetDropped)
attr title "packet drop: hop limit reached, sum(packetBytes)"
scalar Multihop.hostF.ipv4.ip packetDropForwardingDisabled:count 0
attr interpolationmode none
attr source packetDropReasonIsForwardingDisabled(packetDropped)
attr title "packet drop: forwarding disabled, count"
scalar Multihop.hostF.ipv4.ip packetDropForwardingDisabled:sum(packetBytes) 0
attr interpolationmode none
attr source packetDropReasonIsForwardingDisabled(packetDropped)
attr title "packet drop: forwarding disabled, sum(packetBytes)"
scalar Multihop.hostF.ipv4.ip packetDropNoInterfaceFound:count 0
attr interpolationmode none
attr source packetDropReasonIsNoInterfaceFound(packetDropped)
attr title "packet drop: no interface found, count"
scalar Multihop.hostF.ipv4.ip packetDropNoInterfaceFound:sum(packetBytes) 0
attr interpolationmode none
attr source packetDropReasonIsNoInterfaceFound(packetDropped)
attr title "packet drop: no interface found, sum(packetBytes)"
scalar Multihop.hostF.ipv4.ip packetDropNoRouteFound:count 0
attr interpolationmode none
attr source packetDropReasonIsNoRouteFound(packetDropped)
attr title "packet drop: no route found, count"
scalar Multihop.hostF.ipv4.ip packetDropNoRouteFound:sum(packetBytes) 0
attr interpolationmode none
attr source packetDropReasonIsNoRouteFound(packetDropped)
attr title "packet drop: no route found, sum(packetBytes)"
scalar Multihop.hostF.ipv4.ip packetDropUndefined:count 0
attr interpolationmode none
attr source packetDropReasonIsUndefined(packetDropped)
attr title "packet drop: undefined, count"
scalar Multihop.hostF.ipv4.ip packetDropUndefined:sum(packetBytes) 0
attr interpolationmode none
attr source packetDropReasonIsUndefined(packetDropped)
attr title "packet drop: undefined, sum(packetBytes)"
scalar Multihop.hostF.udp packetReceived:count 7
attr interpolationmode none
attr source packetReceived
attr title "packets received, count"
scalar Multihop.hostF.udp packetReceived:sum(packetBytes) 220
attr interpolationmode none
attr source packetReceived
attr title "packets received, sum(packetBytes)"
scalar Multihop.hostF.udp packetSent:count 4
attr interpolationmode none
attr source packetSent
attr title "packets sent, count"
scalar Multihop.hostF.udp packetSent:sum(packetBytes) 124
attr interpolationmode none
attr source packetSent
attr title "packets sent, sum(packetBytes)"
scalar Multihop.hostF.udp passedUpPk:count 7
attr interpolationmode none
attr source packetSentToUpper
attr title "packets passed up, count"
scalar Multihop.hostF.udp droppedPkWrongPort:count 0
attr interpolationmode none
attr source packetDropReasonIsNoPortFound(packetDropped)
attr title "packets dropped (wrong port), count"
scalar Multihop.hostF.udp droppedPkBadChecksum:count 0
attr interpolationmode none
attr source packetDropReasonIsIncorrectlyReceived(packetDropped)
attr title "packets dropped (checksum error), count"
scalar Multihop.hostG.lo[0].lo rcvdPkFromHl:count 0
attr interpolationmode none
attr source packetReceivedFromUpper
attr title "packets received from higher layer, count"
scalar Multihop.hostG.lo[0].lo rcvdPkFromHl:sum(packetBytes) 0
attr interpolationmode none
attr source packetReceivedFromUpper
attr title "packets received from higher layer, sum(packetBytes)"
scalar Multihop.hostG.lo[0].lo passedUpPk:count 0
attr interpolationmode none
attr source packetSentToUpper
attr title "packets passed to higher layer, count"
scalar Multihop.hostG.lo[0].lo passedUpPk:sum(packetBytes) 0
attr interpolationmode none
attr source packetSentToUpper
attr title "packets passed to higher layer, sum(packetBytes)"
scalar Multihop.hostG.wlan[0].mac.queue packetPopped:count 156
attr interpolationmode none
attr title "packet popped, count"
scalar Multihop.hostG.wlan[0].mac.queue packetPopped:sum(packetBytes) 159736
attr interpolationmode none
attr title "packet popped, sum(packetBytes)"
statistic Multihop.hostG.wlan[0].mac.queue queueingTime:histogram
field count 156
field mean 0.003787231106359
field stddev 0.0088522170559622
field min 0
field max 0.054042002768
field sum 0.590808052592
field sqrsum 0.014383597389573
attr interpolationmode none
attr source queueingTime(packetPopped)
attr title "queueing times, histogram"
attr unit s
bin	-inf	0
bin	0	121
bin	0.001	0
bin	0.002	0
bin	0.003	0
bin	0.004	0
bin	0.005	0
bin	0.006	0
bin	0.007	0
bin	0.008	0
bin	0.009	19
bin	0.01	2
bin	0.011	0
bin	0.012	0
bin	0.013	0
bin	0.014	0
bin	0.015	0
bin	0.016	0
bin	0.017	0
bin	0.018	3
bin	0.019	2
bin	0.02	0
bin	0.021	0
bin	0.022	0
bin	0.023	0
bin	0.024	0
bin	0.025	0
bin	0.026	1
bin	0.027	5
bin	0.028	0
bin	0.029	0
bin	0.03	0
bin	0.031	0
bin	0.032	0
bin	0.033	0
bin	0.034	0
bin	0.035	0
bin	0.036	1
bin	0.037	0
bin	0.038	0
bin	0.039	0
bin	0.04	0
bin	0.041	0
bin	0.042	0
bin	0.043	0
bin	0.044	0
bin	0.045	1
bin	0.046	0
bin	0.047	0
bin	0.048	0
bin	0.049	0
bin	0.05	0
bin	0.051	0
bin	0.052	0
bin	0.053	0
bin	0.054	1
bin	0.055	0
bin	0.056	0
bin	0.057	0
bin	0.058	0
bin	0.059	0
bin	0.06	0
bin	0.061	0
bin	0.062	0
bin	0.063	0
bin	0.064	0
bin	0.065	0
bin	0.066	0
bin	0.067	0
bin	0.068	0
scalar Multihop.hostG.wlan[0].mac.queue queueLength:max 2
attr interpolationmode sample-hold
attr source "count(packetPushed) - count(packetPopped) - count(packetRemoved) - count(packetDropped)"
attr title "queue length, max"
scalar Multihop.hostG.wlan[0].mac.queue queueLength:timeavg 0.030063020392216
attr interpolationmode sample-hold
attr source "count(packetPushed) - count(packetPopped) - count(packetRemoved) - count(packetDropped)"
attr title "queue length, timeavg"
scalar Multihop.hostG.wlan[0].mac.queue packetPushed:count 156
attr interpolationmode none
attr title "packet pushed, count"
scalar Multihop.hostG.wlan[0].mac.queue packetPushed:sum(packetBytes) 159736
attr interpolationmode none
attr title "packet pushed, sum(packetBytes)"
scalar Multihop.hostG.wlan[0].mac.queue packetDropQueueOverflow:count 0
attr interpolationmode none
[...]
attr title "packet drop: queue overflow, count"
scalar Multihop.hostG.wlan[0].mac packetDropQueueOverflow:sum(packetBytes) 0
attr interpolationmode none
attr source packetDropReasonIsQueueOverflow(packetDropped)
attr title "packet drop: queue overflow, sum(packetBytes)"
scalar Multihop.hostG.wlan[0].mac packetDropRetryLimitReached:count 0
attr interpolationmode none
attr source packetDropReasonIsRetryLimitReached(packetDropped)
attr title "packet drop: retry limit reached, count"
scalar Multihop.hostG.wlan[0].mac packetDropRetryLimitReached:sum(packetBytes) 0
attr interpolationmode none
attr source packetDropReasonIsRetryLimitReached(packetDropped)
attr title "packet drop: retry limit reached, sum(packetBytes)"
scalar Multihop.hostG.wlan[0].mac linkBroken:count 0
attr interpolationmode none
attr source linkBroken
attr title "link break, count"
statistic Multihop.hostG.wlan[0].radio minSnir:histogram
field count 0
field mean nan
field stddev nan
field min nan
field max nan
field sum 0
field sqrsum 0
attr source minimumSnir(packetSentToUpper)
attr title "Min SNIR, histogram"
bin	-inf	0
bin	0	0
bin	1	0
statistic Multihop.hostG.wlan[0].radio packetErrorRate:histogram
field count 1378
field mean 0.33091436865022
field stddev 0.47071311951412
field min 0
field max 1
field sum 456
field sqrsum 456
attr source packetErrorRate(packetSentToUpper)
attr title "Packet error rate, histogram"
bin	-inf	0
bin	0	922
bin	1	456
bin	2	0
statistic Multihop.hostG.wlan[0].radio bitErrorRate:histogram
field count 1378
field mean 0.33091436865022
field stddev 0.47071311951412
field min 0
field max 1
field sum 456
field sqrsum 456
attr source bitErrorRate(packetSentToUpper)
attr title "Bit error rate, histogram"
bin	-inf	0
bin	0	922
bin	1	456
bin	2	0
statistic Multihop.hostG.wlan[0].radio symbolErrorRate:histogram
field count 1378
field mean 0.33091436865022
field stddev 0.47071311951412
field min 0
field max 1
field sum 456
field sqrsum 456
attr source symbolErrorRate(packetSentToUpper)
attr title "Symbol error rate, histogram"
bin	-inf	0
bin	0	922
bin	1	456
bin	2	0
scalar Multihop.hostG.wlan[0].radio transmissionState:count 1340
attr interpolationmode sample-hold
attr source transmissionStateChanged
attr title "Radio transmission state, count"
scalar Multihop.hostG.wlan[0].radio receptionState:count 5932
attr interpolationmode sample-hold
attr source receptionStateChanged
attr title "Radio reception state, count"
scalar Multihop.hostG.wlan[0].radio radioMode:count 673
attr interpolationmode sample-hold
attr source radioModeChanged
attr title "Radio mode, count"
scalar Multihop.hostG.ipv4.ip packetDropAddressResolutionFailed:count 0
attr interpolationmode none
attr source packetDropReasonIsAddressResolutionFailed(packetDropped)
attr title "packet drop: address resolution failed, count"
scalar Multihop.hostG.ipv4.ip packetDropAddressResolutionFailed:sum(packetBytes) 0
attr interpolationmode none
attr source packetDropReasonIsAddressResolutionFailed(packetDropped)
attr title "packet drop: address resolution failed, sum(packetBytes)"
scalar Multihop.hostG.ipv4.ip packetDropHopLimitReached:count 0
attr interpolationmode none
attr source packetDropReasonIsHopLimitReached(packetDropped)
attr title "packet drop: hop limit reached, count"
scalar Multihop.hostG.ipv4.ip packetDropHopLimitReached:sum(packetBytes) 0
attr interpolationmode none
attr source packetDropReasonIsHopLimitReached(packetDropped)
attr title "packet drop: hop limit reached, sum(packetBytes)"
scalar Multihop.hostG.ipv4.ip packetDropForwardingDisabled:count 0
attr interpolationmode none
attr source packetDropReasonIsForwardingDisabled(packetDropped)
attr title "packet drop: forwarding disabled, count"
scalar Multihop.hostG.ipv4.ip packetDropForwardingDisabled:sum(packetBytes) 0
attr interpolationmode none
attr source packetDropReasonIsForwardingDisabled(packetDropped)
attr title "packet drop: forwarding disabled, sum(packetBytes)"
scalar Multihop.hostG.ipv4.ip packetDropNoInterfaceFound:count 0
attr interpolationmode none
attr source packetDropReasonIsNoInterfaceFound(packetDropped)
attr title "packet drop: no interface found, count"
scalar Multihop.hostG.ipv4.ip packetDropNoInterfaceFound:sum(packetBytes) 0
attr interpolationmode none
attr source packetDropReasonIsNoInterfaceFound(packetDropped)
attr title "packet drop: no interface found, sum(packetBytes)"
scalar Multihop.hostG.ipv4.ip packetDropNoRouteFound:count 0
attr interpolationmode none
attr source packetDropReasonIsNoRouteFound(packetDropped)
attr title "packet drop: no route found, count"
scalar Multihop.hostG.ipv4.ip packetDropNoRouteFound:sum(packetBytes) 0
attr interpolationmode none
attr source packetDropReasonIsNoRouteFound(packetDropped)
attr title "packet drop: no route found, sum(packetBytes)"
scalar Multihop.hostG.ipv4.ip packetDropUndefined:count 0
attr interpolationmode none
attr source packetDropReasonIsUndefined(packetDropped)
attr title "packet drop: undefined, count"
scalar Multihop.hostG.ipv4.ip packetDropUndefined:sum(packetBytes) 0
attr interpolationmode none
attr source packetDropReasonIsUndefined(packetDropped)
attr title "packet drop: undefined, sum(packetBytes)"
scalar Multihop.hostG.udp packetReceived:count 6
attr interpolationmode none
attr source packetReceived
attr title "packets received, count"
scalar Multihop.hostG.udp packetReceived:sum(packetBytes) 188
attr interpolationmode none
attr source packetReceived
attr title "packets received, sum(packetBytes)"
scalar Multihop.hostG.udp packetSent:count 4
attr interpolationmode none
attr source packetSent
attr title "packets sent, count"
scalar Multihop.hostG.udp packetSent:sum(packetBytes) 124
attr interpolationmode none
attr source packetSent
attr title "packets sent, sum(packetBytes)"
scalar Multihop.hostG.udp passedUpPk:count 6
attr interpolationmode none
attr source packetSentToUpper
attr title "packets passed up, count"
scalar Multihop.hostG.udp droppedPkWrongPort:count 0
attr interpolationmode none
attr source packetDropReasonIsNoPortFound(packetDropped)
attr title "packets dropped (wrong port), count"
scalar Multihop.hostG.udp droppedPkBadChecksum:count 0
attr interpolationmode none
attr source packetDropReasonIsIncorrectlyReceived(packetDropped)
attr title "packets dropped (checksum error), count"
scalar Multihop.hostH.lo[0].lo rcvdPkFromHl:count 0
attr interpolationmode none
attr source packetReceivedFromUpper
attr title "packets received from higher layer, count"
scalar Multihop.hostH.lo[0].lo rcvdPkFromHl:sum(packetBytes) 0
attr interpolationmode none
attr source packetReceivedFromUpper
attr title "packets received from higher layer, sum(packetBytes)"
scalar Multihop.hostH.lo[0].lo passedUpPk:count 0
attr interpolationmode none
attr source packetSentToUpper
attr title "packets passed to higher layer, count"
scalar Multihop.hostH.lo[0].lo passedUpPk:sum(packetBytes) 0
attr interpolationmode none
attr source packetSentToUpper
attr title "packets passed to higher layer, sum(packetBytes)"
scalar Multihop.hostH.wlan[0].mac.queue packetPopped:count 373
attr interpolationmode none
attr title "packet popped, count"
scalar Multihop.hostH.wlan[0].mac.queue packetPopped:sum(packetBytes) 387365
attr interpolationmode none
attr title "packet popped, sum(packetBytes)"
statistic Multihop.hostH.wlan[0].mac.queue queueingTime:histogram
field count 373
field mean 0.00090057525604826
field stddev 0.0033965742005833
field min 0
field max 0.027957002076
field sum 0.335914570506
field sqrsum 0.0045941748139692
attr interpolationmode none
attr source queueingTime(packetPopped)
attr title "queueing times, histogram"
attr unit s
bin	-inf	0
bin	0	343
bin	0.0006	0
bin	0.0012	0
bin	0.0018	0
bin	0.0024	0
bin	0.003	0
bin	0.0036	0
bin	0.0042	0
bin	0.0048	0
bin	0.0054	0
bin	0.006	0
bin	0.0066	0
bin	0.0072	0
bin	0.0078	0
bin	0.0084	0
bin	0.009	27
bin	0.0096	0
bin	0.0102	0
bin	0.0108	0
bin	0.0114	0
bin	0.012	0
bin	0.0126	0
bin	0.0132	0
bin	0.0138	0
bin	0.0144	0
bin	0.015	0
bin	0.0156	0
bin	0.0162	0
bin	0.0168	0
bin	0.0174	0
bin	0.018	0
bin	0.0186	0
bin	0.0192	0
bin	0.0198	0
bin	0.0204	0
bin	0.021	0
bin	0.0216	0
bin	0.0222	0
bin	0.0228	0
bin	0.0234	0
bin	0.024	0
bin	0.0246	0
bin	0.0252	0
bin	0.0258	0
bin	0.0264	0
bin	0.027	2
bin	0.0276	1
bin	0.0282	0
scalar Multihop.hostH.wlan[0].mac.queue queueLength:max 3
attr interpolationmode sample-hold
attr source "count(packetPushed) - count(packetPopped) - count(packetRemoved) - count(packetDropped)"
attr title "queue length, max"
scalar Multihop.hostH.wlan[0].mac.queue queueLength:timeavg 0.017523922890438
attr interpolationmode sample-hold
attr source "count(packetPushed) - count(packetPopped) - count(packetRemoved) - count(packetDropped)"
attr title "queue length, timeavg"
scalar Multihop.hostH.wlan[0].mac.queue packetPushed:count 373
attr interpolationmode none
attr title "packet pushed, count"
scalar Multihop.hostH.wlan[0].mac.queue packetPushed:sum(packetBytes) 387365
attr interpolationmode none
attr title "packet pushed, sum(packetBytes)"
scalar Multihop.hostH.wlan[0].mac.queue packetDropQueueOverflow:count 0
attr interpolationmode none
attr source packetDropReasonIsQueueOverflow(packetDropped)
attr title "packet drops: queue overflow, count"
scalar Multihop.hostH.wlan[0].mac.queue packetDropQueueOverflow:sum(packetBytes) 0
attr interpolationmode none
attr source packetDropReasonIsQueueOverflow(packetDropped)
attr title "packet drops: queue overflow, sum(packetBytes)"
scalar Multihop.hostH.wlan[0].mac.queue packetRemoved:count 0
attr interpolationmode none
attr title "packets removed, count"
scalar Multihop.hostH.wlan[0].mac.queue packetRemoved:sum(packetBytes) 0
attr interpolationmode none
attr title "packets removed, sum(packetBytes)"
scalar Multihop.hostH.wlan[0].mac numRetry 11
scalar Multihop.hostH.wlan[0].mac numSentWithoutRetry 360
scalar Multihop.hostH.wlan[0].mac numGivenUp 0
scalar Multihop.hostH.wlan[0].mac numCollision 0
scalar Multihop.hostH.wlan[0].mac numSent 371
scalar Multihop.hostH.wlan[0].mac numReceived 371
scalar Multihop.hostH.wlan[0].mac numSentBroadcast 2
scalar Multihop.hostH.wlan[0].mac numReceivedBroadcast 6
scalar Multihop.hostH.wlan[0].mac packetDropIncorrectlyReceived:count 0
attr interpolationmode none
attr source packetDropReasonIsIncorrectlyReceived(packetDropped)
attr title "packet drop: incorrectly received, count"
scalar Multihop.hostH.wlan[0].mac packetDropIncorrectlyReceived:sum(packetBytes) 0
attr interpolationmode none
attr source packetDropReasonIsIncorrectlyReceived(packetDropped)
attr title "packet drop: incorrectly received, sum(packetBytes)"
scalar Multihop.hostH.wlan[0].mac packetDropNotAddressedToUs:count 2
attr interpolationmode none
attr source packetDropReasonIsNotAddressedToUs(packetDropped)
attr title "packet drop: not addressed to us, count"
scalar Multihop.hostH.wlan[0].mac packetDropNotAddressedToUs:sum(packetBytes) 138
attr interpolationmode none
attr source packetDropReasonIsNotAddressedToUs(packetDropped)
attr title "packet drop: not addressed to us, sum(packetBytes)"
scalar Multihop.hostH.wlan[0].mac packetDropQueueOverflow:count 0
attr interpolationmode none
attr source packetDropReasonIsQueueOverflow(packetDropped)
attr title "packet drop: queue overflow, count"
scalar Multihop.hostH.wlan[0].mac packetDropQueueOverflow:sum(packetBytes) 0
attr interpolationmode none
attr source packetDropReasonIsQueueOverflow(packetDropped)
attr title "packet drop: queue overflow, sum(packetBytes)"
scalar Multihop.hostH.wlan[0].mac packetDropRetryLimitReached:count 0
attr interpolationmode none
attr source packetDropReasonIsRetryLimitReached(packetDropped)
attr title "packet drop: retry limit reached, count"
scalar Multihop.hostH.wlan[0].mac packetDropRetryLimitReached:sum(packetBytes) 0
attr interpolationmode none
attr source packetDropReasonIsRetryLimitReached(packetDropped)
attr title "packet drop: retry limit reached, sum(packetBytes)"
scalar Multihop.hostH.wlan[0].mac linkBroken:count 0
attr interpolationmode none
attr source linkBroken
attr title "link break, count"
statistic Multihop.hostH.wlan[0].radio minSnir:histogram
field count 0
field mean nan
field stddev nan
field min nan
field max nan
field sum 0
field sqrsum 0
attr source minimumSnir(packetSentToUpper)
attr title "Min SNIR, histogram"
bin	-inf	0
bin	0	0
bin	1	0
statistic Multihop.hostH.wlan[0].radio packetErrorRate:histogram
field count 1091
field mean 0.0082493125572869
field stddev 0.090491807054685
field min 0
field max 1
field sum 9
field sqrsum 9
attr source packetErrorRate(packetSentToUpper)
attr title "Packet error rate, histogram"
bin	-inf	0
bin	-0.5	0
bin	-0.48	0
bin	-0.46	0
bin	-0.44	0
bin	-0.42	0
bin	-0.4	0
bin	-0.38	0
bin	-0.36	0
bin	-0.34	0
bin	-0.32	0
bin	-0.3	0
bin	-0.28	0
bin	-0.26	0
bin	-0.24	0
bin	-0.22	0
bin	-0.2	0
bin	-0.18	0
bin	-0.16	0
bin	-0.14	0
bin	-0.12	0
bin	-0.1	0
bin	-0.08	0
bin	-0.06	0
bin	-0.04	0
bin	-0.02	0
bin	0	1082
bin	0.02	0
bin	0.04	0
bin	0.06	0
bin	0.08	0
bin	0.1	0
bin	0.12	0
bin	0.14	0
bin	0.16	0
bin	0.18	0
bin	0.2	0
bin	0.22	0
bin	0.24	0
bin	0.26	0
bin	0.28	0
bin	0.3	0
bin	0.32	0
bin	0.34	0
bin	0.36	0
bin	0.38	0
bin	0.4	0
bin	0.42	0
bin	0.44	0
bin	0.46	0
bin	0.48	0
bin	0.5	0
bin	0.52	0
bin	0.54	0
bin	0.56	0
bin	0.58	0
bin	0.6	0
bin	0.62	0
bin	0.64	0
bin	0.66	0
bin	0.68	0
bin	0.7	0
bin	0.72	0
bin	0.74	0
bin	0.76	0
bin	0.78	0
bin	0.8	0
bin	0.82	0
bin	0.84	0
bin	0.86	0
bin	0.88	0
bin	0.9	0
bin	0.92	0
bin	0.94	0
bin	0.96	0
bin	0.98	0
bin	1	9
bin	1.02	0
statistic Multihop.hostH.wlan[0].radio bitErrorRate:histogram
field count 1091
field mean 0.0082493125572869
field stddev 0.090491807054685
field min 0
field max 1
field sum 9
field sqrsum 9
attr source bitErrorRate(packetSentToUpper)
attr title "Bit error rate, histogram"
bin	-inf	0
bin	-0.5	0
bin	-0.48	0
bin	-0.46	0
bin	-0.44	0
bin	-0.42	0
bin	-0.4	0
bin	-0.38	0
bin	-0.36	0
bin	-0.34	0
bin	-0.32	0
bin	-0.3	0
bin	-0.28	0
bin	-0.26	0
bin	-0.24	0
bin	-0.22	0
bin	-0.2	0
bin	-0.18	0
bin	-0.16	0
bin	-0.14	0
bin	-0.12	0
bin	-0.1	0
bin	-0.08	0
bin	-0.06	0
bin	-0.04	0
bin	-0.02	0
bin	0	1082
bin	0.02	0
bin	0.04	0
bin	0.06	0
bin	0.08	0
bin	0.1	0
bin	0.12	0
bin	0.14	0
bin	0.16	0
bin	0.18	0
bin	0.2	0
bin	0.22	0
bin	0.24	0
bin	0.26	0
bin	0.28	0
bin	0.3	0
bin	0.32	0
bin	0.34	0
bin	0.36	0
bin	0.38	0
bin	0.4	0
bin	0.42	0
bin	0.44	0
bin	0.46	0
bin	0.48	0
bin	0.5	0
bin	0.52	0
bin	0.54	0
bin	0.56	0
bin	0.58	0
bin	0.6	0
bin	0.62	0
bin	0.64	0
bin	0.66	0
bin	0.68	0
bin	0.7	0
bin	0.72	0
bin	0.74	0
bin	0.76	0
bin	0.78	0
bin	0.8	0
bin	0.82	0
bin	0.84	0
bin	0.86	0
bin	0.88	0
bin	0.9	0
bin	0.92	0
bin	0.94	0
bin	0.96	0
bin	0.98	0
bin	1	9
bin	1.02	0
statistic Multihop.hostH.wlan[0].radio symbolErrorRate:histogram
field count 1091
field mean 0.0082493125572869
field stddev 0.090491807054685
field min 0
field max 1
field sum 9
field sqrsum 9
attr source symbolErrorRate(packetSentToUpper)
attr title "Symbol error rate, histogram"
bin	-inf	0
bin	-0.5	0
bin	-0.48	0
bin	-0.46	0
bin	-0.44	0
bin	-0.42	0
bin	-0.4	0
bin	-0.38	0
bin	-0.36	0
bin	-0.34	0
bin	-0.32	0
bin	-0.3	0
bin	-0.28	0
bin	-0.26	0
bin	-0.24	0
bin	-0.22	0
bin	-0.2	0
bin	-0.18	0
bin	-0.16	0
bin	-0.14	0
bin	-0.12	0
bin	-0.1	0
bin	-0.08	0
bin	-0.06	0
bin	-0.04	0
bin	-0.02	0
bin	0	1082
bin	0.02	0
bin	0.04	0
bin	0.06	0
bin	0.08	0
bin	0.1	0
bin	0.12	0
bin	0.14	0
bin	0.16	0
bin	0.18	0
bin	0.2	0
bin	0.22	0
bin	0.24	0
bin	0.26	0
bin	0.28	0
bin	0.3	0
bin	0.32	0
bin	0.34	0
bin	0.36	0
bin	0.38	0
bin	0.4	0
bin	0.42	0
bin	0.44	0
bin	0.46	0
bin	0.48	0
bin	0.5	0
bin	0.52	0
bin	0.54	0
bin	0.56	0
bin	0.58	0
bin	0.6	0
bin	0.62	0
bin	0.64	0
bin	0.66	0
bin	0.68	0
bin	0.7	0
bin	0.72	0
bin	0.74	0
bin	0.76	0
bin	0.78	0
bin	0.8	0
bin	0.82	0
bin	0.84	0
bin	0.86	0
bin	0.88	0
bin	0.9	0
bin	0.92	0
bin	0.94	0
bin	0.96	0
bin	0.98	0
bin	1	9
bin	1.02	0
scalar Multihop.hostH.wlan[0].radio transmissionState:count 3020
attr interpolationmode sample-hold
attr source transmissionStateChanged
attr title "Radio transmission state, count"
scalar Multihop.hostH.wlan[0].radio receptionState:count 3712
attr interpolationmode sample-hold
attr source receptionStateChanged
attr title "Radio reception state, count"
scalar Multihop.hostH.wlan[0].radio radioMode:count 1513
attr interpolationmode sample-hold
attr source radioModeChanged
attr title "Radio mode, count"
scalar Multihop.hostH.ipv4.ip packetDropAddressResolutionFailed:count 0
attr interpolationmode none
attr source packetDropReasonIsAddressResolutionFailed(packetDropped)
attr title "packet drop: address resolution failed, count"
scalar Multihop.hostH.ipv4.ip packetDropAddressResolutionFailed:sum(packetBytes) 0
attr interpolationmode none
attr source packetDropReasonIsAddressResolutionFailed(packetDropped)
attr title "packet drop: address resolution failed, sum(packetBytes)"
scalar Multihop.hostH.ipv4.ip packetDropHopLimitReached:count 0
attr interpolationmode none
attr source packetDropReasonIsHopLimitReached(packetDropped)
attr title "packet drop: hop limit reached, count"
scalar Multihop.hostH.ipv4.ip packetDropHopLimitReached:sum(packetBytes) 0
attr interpolationmode none
attr source packetDropReasonIsHopLimitReached(packetDropped)
attr title "packet drop: hop limit reached, sum(packetBytes)"
scalar Multihop.hostH.ipv4.ip packetDropForwardingDisabled:count 0
attr interpolationmode none
attr source packetDropReasonIsForwardingDisabled(packetDropped)
attr title "packet drop: forwarding disabled, count"
scalar Multihop.hostH.ipv4.ip packetDropForwardingDisabled:sum(packetBytes) 0
attr interpolationmode none
attr source packetDropReasonIsForwardingDisabled(packetDropped)
attr title "packet drop: forwarding disabled, sum(packetBytes)"
scalar Multihop.hostH.ipv4.ip packetDropNoInterfaceFound:count 0
attr interpolationmode none
attr source packetDropReasonIsNoInterfaceFound(packetDropped)
attr title "packet drop: no interface found, count"
scalar Multihop.hostH.ipv4.ip packetDropNoInterfaceFound:sum(packetBytes) 0
attr interpolationmode none
attr source packetDropReasonIsNoInterfaceFound(packetDropped)
attr title "packet drop: no interface found, sum(packetBytes)"
scalar Multihop.hostH.ipv4.ip packetDropNoRouteFound:count 0
attr interpolationmode none
attr source packetDropReasonIsNoRouteFound(packetDropped)
attr title "packet drop: no route found, count"
scalar Multihop.hostH.ipv4.ip packetDropNoRouteFound:sum(packetBytes) 0
attr interpolationmode none
attr source packetDropReasonIsNoRouteFound(packetDropped)
attr title "packet drop: no route found, sum(packetBytes)"
scalar Multihop.hostH.ipv4.ip packetDropUndefined:count 0
attr interpolationmode none
attr source packetDropReasonIsUndefined(packetDropped)
attr title "packet drop: undefined, count"
scalar Multihop.hostH.ipv4.ip packetDropUndefined:sum(packetBytes) 0
attr interpolationmode none
attr source packetDropReasonIsUndefined(packetDropped)
attr title "packet drop: undefined, sum(packetBytes)"
scalar Multihop.hostH.udp packetReceived:count 8
attr interpolationmode none
attr source packetReceived
attr title "packets received, count"
scalar Multihop.hostH.udp packetReceived:sum(packetBytes) 248
attr interpolationmode none
attr source packetReceived
attr title "packets received, sum(packetBytes)"
scalar Multihop.hostH.udp packetSent:count 4
attr interpolationmode none
attr source packetSent
attr title "packets sent, count"
scalar Multihop.hostH.udp packetSent:sum(packetBytes) 120
attr interpolationmode none
attr source packetSent
attr title "packets sent, sum(packetBytes)"
scalar Multihop.hostH.udp passedUpPk:count 8
attr interpolationmode none
attr source packetSentToUpper
attr title "packets passed up, count"
scalar Multihop.hostH.udp droppedPkWrongPort:count 0
attr interpolationmode none
attr source packetDropReasonIsNoPortFound(packetDropped)
attr title "packets dropped (wrong port), count"
scalar Multihop.hostH.udp droppedPkBadChecksum:count 0
attr interpolationmode none
attr source packetDropReasonIsIncorrectlyReceived(packetDropped)
attr title "packets dropped (checksum error), count"

